@<TRIPOS>MOLECULE
4yjq.A
56 60 1 0 0 
SMALL
USER_CHARGES


@<TRIPOS>ATOM
  1 C01     -0.4907    11.8606    44.3993 C.3   1 Q4DK  -0.0590 
  2 H011    -0.2574    10.8438    44.0834 H     1 Q4DK   0.0800 
  3 H012    -1.4665    12.1478    44.0077 H     1 Q4DK   0.0800 
  4 H013    -0.5079    11.9078    45.4882 H     1 Q4DK   0.0800 
  5 C05      0.5530    12.7978    43.8755 C.2   1 Q4DK   0.0462 
  6 N06      1.5908    12.3186    43.0936 N.2   1 Q4DK  -0.5653 
  7 C07      2.2741    13.3698    42.8134 C.2   1 Q4DK   0.3281 
  8 H07      3.1723    13.3368    42.2146 H     1 Q4DK   0.1500 
  9 O09      1.7813    14.5239    43.3272 O.3   1 Q4DK  -0.2800 
 10 C10      0.6727    14.1296    44.0139 C.2   1 Q4DK   0.0870 
 11 C11     -0.0976    15.1877    44.6659 C.ar  1 Q4DK   0.0530 
 12 C12     -0.8409    14.9050    45.8030 C.ar  1 Q4DK  -0.1500 
 13 H12     -0.8222    13.9099    46.2225 H     1 Q4DK   0.1500 
 14 C14     -1.6032    15.8863    46.4009 C.ar  1 Q4DK  -0.1500 
 15 H14     -2.1785    15.6550    47.2851 H     1 Q4DK   0.1500 
 16 C16     -1.6353    17.1692    45.8730 C.ar  1 Q4DK  -0.1500 
 17 H16     -2.2204    17.9374    46.3566 H     1 Q4DK   0.1500 
 18 C18     -0.9130    17.4664    44.7194 C.ar  1 Q4DK   0.1000 
 19 N19     -1.0310    18.7882    44.2276 N.pl3 1 Q4DK  -0.6000 
 20 H19     -1.8026    19.3094    44.6190 H     1 Q4DK   0.4000 
 21 C21     -0.2882    19.4836    43.3191 C.ar  1 Q4DK   0.7200 
 22 N22     -0.7108    20.7451    43.1182 N.ar  1 Q4DK  -0.6200 
 23 C23     -0.0115    21.4548    42.2167 C.ar  1 Q4DK   0.1600 
 24 H23     -0.3180    22.4715    42.0200 H     1 Q4DK   0.1500 
 25 C25      1.0693    20.9610    41.5324 C.ar  1 Q4DK  -0.1500 
 26 H25      1.5941    21.5435    40.7897 H     1 Q4DK   0.1500 
 27 C27      1.4465    19.6621    41.8559 C.ar  1 Q4DK   0.4100 
 28 N28      0.7553    18.9069    42.7190 N.ar  1 Q4DK  -0.6200 
 29 N29      2.5747    19.0807    41.2709 N.pl3 1 Q4DK  -0.5691 
 30 C30      2.9625    17.6944    41.6038 C.3   1 Q4DK   0.2091 
 31 H301     2.4588    17.4069    42.5267 H     1 Q4DK   0.0800 
 32 H302     4.0417    17.6642    41.7543 H     1 Q4DK   0.0800 
 33 C33      2.5983    16.6890    40.5225 C.3   1 Q4DK  -0.1600 
 34 H331     3.0981    15.7464    40.7457 H     1 Q4DK   0.0800 
 35 H332     2.9521    17.0697    39.5644 H     1 Q4DK   0.0800 
 36 C36      1.1281    16.4317    40.4160 C.3   1 Q4DK   0.1200 
 37 H361     0.6349    17.3791    40.1986 H     1 Q4DK   0.0800 
 38 H362     0.7814    16.0538    41.3778 H     1 Q4DK   0.0800 
 39 O39      0.7265    15.4452    39.3571 O.3   1 Q4DK  -0.6800 
 40 H39      1.0346    15.7836    38.5132 H     1 Q4DK   0.4000 
 41 C41      3.4114    19.7570    40.3410 C.ar  1 Q4DK   0.1000 
 42 C42      4.6580    20.2504    40.7068 C.ar  1 Q4DK  -0.1500 
 43 H42      4.9752    20.1927    41.7376 H     1 Q4DK   0.1500 
 44 C44      5.4972    20.8155    39.7612 C.ar  1 Q4DK  -0.1500 
 45 H44      6.4822    21.1443    40.0578 H     1 Q4DK   0.1500 
 46 C46      5.1015    20.9675    38.4479 C.ar  1 Q4DK  -0.1500 
 47 H46      5.7537    21.4268    37.7199 H     1 Q4DK   0.1500 
 48 C48      3.8398    20.5121    38.0912 C.ar  1 Q4DK  -0.1516 
 49 N49      3.1825    20.5326    36.9029 N.pl3 1 Q4DK   0.2996 
 50 H49      3.5695    20.9048    36.0474 H     1 Q4DK   0.2700 
 51 N51      1.9372    19.9898    37.0060 N.2   1 Q4DK  -0.7068 
 52 C52      1.8045    19.6284    38.2658 C.2   1 Q4DK   0.1388 
 53 H52      0.9149    19.1758    38.6784 H     1 Q4DK   0.1500 
 54 C54      2.9715    19.9073    39.0079 C.ar  1 Q4DK   0.0000 
 55 C55     -0.1510    16.4721    44.1171 C.ar  1 Q4DK  -0.1500 
 56 H55      0.4044    16.6937    43.2178 H     1 Q4DK   0.1500 
@<TRIPOS>BOND
  1   1   2  1   
  2   1   3  1   
  3   1   4  1   
  4   1   5  1   
  5   5   6  1   
  6   5  10  2   
  7   6   7  2   
  8   7   8  1   
  9   7   9  1   
 10   9  10  1   
 11  10  11  1   
 12  11  12  ar  
 13  11  55  ar  
 14  12  13  1   
 15  12  14  ar  
 16  14  15  1   
 17  14  16  ar  
 18  16  17  1   
 19  16  18  ar  
 20  18  19  1   
 21  18  55  ar  
 22  19  20  1   
 23  19  21  1   
 24  21  22  ar  
 25  21  28  ar  
 26  22  23  ar  
 27  23  24  1   
 28  23  25  ar  
 29  25  26  1   
 30  25  27  ar  
 31  27  28  ar  
 32  27  29  1   
 33  29  30  1   
 34  29  41  1   
 35  30  31  1   
 36  30  32  1   
 37  30  33  1   
 38  33  34  1   
 39  33  35  1   
 40  33  36  1   
 41  36  37  1   
 42  36  38  1   
 43  36  39  1   
 44  39  40  1   
 45  41  42  ar  
 46  41  54  ar  
 47  42  43  1   
 48  42  44  ar  
 49  44  45  1   
 50  44  46  ar  
 51  46  47  1   
 52  46  48  ar  
 53  48  49  1   
 54  48  54  ar  
 55  49  50  1   
 56  49  51  1   
 57  51  52  2   
 58  52  53  1   
 59  52  54  1   
 60  55  56  1   
@<TRIPOS>SUBSTRUCTURE
  1 Q4DK  28 GROUP 4 A **** 0

# MOE 2012.10 (io_trps.svl 2012.10)
