@<TRIPOS>MOLECULE
4yjq.A
969 646 323 0 0 
SMALL
USER_CHARGES


@<TRIPOS>ATOM
  1 O      -16.3308    -3.4776    14.6849 O.3     1 HOH   0.0000 
  2 H1     -15.3708    -3.4776    14.6849 H       1 HOH   0.0000 
  3 H2     -16.6210    -2.8306    15.3320 H       1 HOH   0.0000 
  4 O       -7.9381     1.0490    36.1972 O.3     2 HOH   0.0000 
  5 H1      -6.9781     1.0490    36.1972 H       2 HOH   0.0000 
  6 H2      -8.2283     1.6961    36.8443 H       2 HOH   0.0000 
  7 O        7.2711    17.5258    59.2359 O.3     3 HOH   0.0000 
  8 H1       8.2311    17.5258    59.2359 H       3 HOH   0.0000 
  9 H2       6.9809    18.1729    59.8829 H       3 HOH   0.0000 
 10 O      -10.2699     0.1474    33.8363 O.3     4 HOH   0.0000 
 11 H1      -9.3099     0.1474    33.8363 H       4 HOH   0.0000 
 12 H2     -10.5602     0.7944    34.4834 H       4 HOH   0.0000 
 13 O      -35.2669    23.0157    30.5177 O.3     5 HOH   0.0000 
 14 H1     -34.3069    23.0157    30.5177 H       5 HOH   0.0000 
 15 H2     -35.5571    23.6627    31.1647 H       5 HOH   0.0000 
 16 O       11.9661    16.7420    19.8130 O.3     6 HOH  -0.8340 
 17 H1      11.1260    17.1594    19.6225 H       6 HOH   0.4170 
 18 H2      12.6203    17.3957    19.5662 H       6 HOH   0.4170 
 19 O       -3.5793    -6.9400    25.6754 O.3     7 HOH   0.0000 
 20 H1      -2.6193    -6.9400    25.6754 H       7 HOH   0.0000 
 21 H2      -3.8696    -6.2930    26.3224 H       7 HOH   0.0000 
 22 O        4.5781    31.9190    23.1090 O.3     8 HOH   0.0000 
 23 H1       5.5381    31.9190    23.1090 H       8 HOH   0.0000 
 24 H2       4.2878    32.5661    23.7561 H       8 HOH   0.0000 
 25 O        6.3997    13.4909    30.7997 O.3     9 HOH   0.0000 
 26 H1       7.3597    13.4909    30.7997 H       9 HOH   0.0000 
 27 H2       6.1094    14.1380    31.4467 H       9 HOH   0.0000 
 28 O        1.2669    12.2398    32.5256 O.3    10 HOH   0.0000 
 29 H1       2.2269    12.2398    32.5256 H      10 HOH   0.0000 
 30 H2       0.9766    12.8869    33.1727 H      10 HOH   0.0000 
 31 O      -27.7515    35.3044    25.2267 O.3    11 HOH   0.0000 
 32 H1     -26.7915    35.3044    25.2267 H      11 HOH   0.0000 
 33 H2     -28.0418    35.9514    25.8737 H      11 HOH   0.0000 
 34 O       -2.5784    16.9683    50.0109 O.3    12 HOH  -0.8340 
 35 H1      -2.9534    17.3739    50.7926 H      12 HOH   0.4170 
 36 H2      -3.2216    17.1350    49.3219 H      12 HOH   0.4170 
 37 O        4.8054    42.1957    54.4772 O.3    13 HOH   0.0000 
 38 H1       5.7654    42.1957    54.4772 H      13 HOH   0.0000 
 39 H2       4.5151    42.8428    55.1242 H      13 HOH   0.0000 
 40 O        6.8525    20.8070    25.8021 O.3    14 HOH   0.0000 
 41 H1       7.8125    20.8070    25.8021 H      14 HOH   0.0000 
 42 H2       6.5622    21.4540    26.4491 H      14 HOH   0.0000 
 43 O       -4.4854    -7.8787    28.5879 O.3    15 HOH   0.0000 
 44 H1      -3.5254    -7.8787    28.5879 H      15 HOH   0.0000 
 45 H2      -4.7757    -7.2316    29.2349 H      15 HOH   0.0000 
 46 O      -29.2024    10.3434    24.0185 O.3    16 HOH   0.0000 
 47 H1     -28.2424    10.3434    24.0185 H      16 HOH   0.0000 
 48 H2     -29.4927    10.9904    24.6655 H      16 HOH   0.0000 
 49 O        7.1312    21.0569    59.1777 O.3    17 HOH   0.0000 
 50 H1       8.0912    21.0569    59.1777 H      17 HOH   0.0000 
 51 H2       6.8409    21.7039    59.8247 H      17 HOH   0.0000 
 52 O       -3.8488    35.2166    29.2938 O.3    18 HOH   0.0000 
 53 H1      -2.8888    35.2166    29.2938 H      18 HOH   0.0000 
 54 H2      -4.1390    35.8637    29.9408 H      18 HOH   0.0000 
 55 O      -14.4554    25.3446    45.9788 O.3    19 HOH   0.0000 
 56 H1     -13.4954    25.3446    45.9788 H      19 HOH   0.0000 
 57 H2     -14.7457    25.9917    46.6258 H      19 HOH   0.0000 
 58 O       11.5391    28.3599    55.2262 O.3    20 HOH   0.0000 
 59 H1      12.4991    28.3599    55.2262 H      20 HOH   0.0000 
 60 H2      11.2488    29.0069    55.8733 H      20 HOH   0.0000 
 61 O       -2.2278    22.2888    53.9700 O.3    21 HOH   0.0000 
 62 H1      -1.2678    22.2888    53.9700 H      21 HOH   0.0000 
 63 H2      -2.5180    22.9359    54.6171 H      21 HOH   0.0000 
 64 O       -7.4873    32.7290    19.5137 O.3    22 HOH   0.0000 
 65 H1      -6.5273    32.7290    19.5137 H      22 HOH   0.0000 
 66 H2      -7.7775    33.3760    20.1607 H      22 HOH   0.0000 
 67 O      -15.0400    12.3582     7.3567 O.3    23 HOH   0.0000 
 68 H1     -14.0800    12.3582     7.3567 H      23 HOH   0.0000 
 69 H2     -15.3302    13.0052     8.0037 H      23 HOH   0.0000 
 70 O       -7.5335    32.3247    40.0501 O.3    24 HOH   0.0000 
 71 H1      -6.5735    32.3247    40.0501 H      24 HOH   0.0000 
 72 H2      -7.8237    32.9718    40.6972 H      24 HOH   0.0000 
 73 O        4.0791    13.6012    32.5415 O.3    25 HOH   0.0000 
 74 H1       5.0391    13.6012    32.5415 H      25 HOH   0.0000 
 75 H2       3.7888    14.2482    33.1886 H      25 HOH   0.0000 
 76 O        0.1122    44.1678    47.9510 O.3    26 HOH   0.0000 
 77 H1       1.0722    44.1678    47.9510 H      26 HOH   0.0000 
 78 H2      -0.1780    44.8148    48.5981 H      26 HOH   0.0000 
 79 O       -4.3708    27.4770    16.1779 O.3    27 HOH  -0.8340 
 80 H1      -3.5835    27.7917    15.7337 H      27 HOH   0.4170 
 81 H2      -4.3894    27.9599    17.0042 H      27 HOH   0.4170 
 82 O       10.5180     6.8043    18.7461 O.3    28 HOH   0.0000 
 83 H1      11.4780     6.8043    18.7461 H      28 HOH   0.0000 
 84 H2      10.2277     7.4514    19.3932 H      28 HOH   0.0000 
 85 O       -3.0771    24.6292    10.0839 O.3    29 HOH  -0.8340 
 86 H1      -2.2121    24.7511     9.6925 H      29 HOH   0.4170 
 87 H2      -3.6901    24.7964     9.3680 H      29 HOH   0.4170 
 88 O       -4.7464    24.8805    52.4450 O.3    30 HOH   0.0000 
 89 H1      -3.7864    24.8805    52.4450 H      30 HOH   0.0000 
 90 H2      -5.0367    25.5275    53.0920 H      30 HOH   0.0000 
 91 O       -3.0381    25.3508    48.5268 O.3    31 HOH   0.0000 
 92 H1      -2.0781    25.3508    48.5268 H      31 HOH   0.0000 
 93 H2      -3.3284    25.9978    49.1738 H      31 HOH   0.0000 
 94 O      -19.2391    12.5344    15.5542 O.3    32 HOH   0.0000 
 95 H1     -18.2791    12.5344    15.5542 H      32 HOH   0.0000 
 96 H2     -19.5294    13.1814    16.2012 H      32 HOH   0.0000 
 97 O        1.2804    33.9945    33.9941 O.3    33 HOH   0.0000 
 98 H1       2.2404    33.9945    33.9941 H      33 HOH   0.0000 
 99 H2       0.9901    34.6416    34.6412 H      33 HOH   0.0000 
100 O      -18.5789    24.3502    36.2948 O.3    34 HOH   0.0000 
101 H1     -17.6189    24.3502    36.2948 H      34 HOH   0.0000 
102 H2     -18.8692    24.9972    36.9419 H      34 HOH   0.0000 
103 O      -16.3930    27.6490    38.5960 O.3    35 HOH   0.0000 
104 H1     -15.4330    27.6490    38.5960 H      35 HOH   0.0000 
105 H2     -16.6832    28.2961    39.2431 H      35 HOH   0.0000 
106 O       -1.8825    33.8353    13.4366 O.3    36 HOH   0.0000 
107 H1      -0.9225    33.8353    13.4366 H      36 HOH   0.0000 
108 H2      -2.1728    34.4824    14.0836 H      36 HOH   0.0000 
109 O       -2.9085    -1.2317    15.1163 O.3    37 HOH   0.0000 
110 H1      -1.9485    -1.2317    15.1163 H      37 HOH   0.0000 
111 H2      -3.1988    -0.5846    15.7634 H      37 HOH   0.0000 
112 O       -2.8990    32.9353    19.0736 O.3    38 HOH   0.0000 
113 H1      -1.9390    32.9353    19.0736 H      38 HOH   0.0000 
114 H2      -3.1892    33.5824    19.7207 H      38 HOH   0.0000 
115 O       -1.9397    -5.2559    17.8851 O.3    39 HOH   0.0000 
116 H1      -0.9797    -5.2559    17.8851 H      39 HOH   0.0000 
117 H2      -2.2299    -4.6089    18.5322 H      39 HOH   0.0000 
118 O       -4.2621    19.4016    52.7007 O.3    40 HOH   0.0000 
119 H1      -3.3021    19.4016    52.7007 H      40 HOH   0.0000 
120 H2      -4.5523    20.0487    53.3477 H      40 HOH   0.0000 
121 O      -19.7153    31.9627    25.9012 O.3    41 HOH   0.0000 
122 H1     -18.7553    31.9627    25.9012 H      41 HOH   0.0000 
123 H2     -20.0056    32.6098    26.5482 H      41 HOH   0.0000 
124 O       18.5164    12.0477    28.9935 O.3    42 HOH   0.0000 
125 H1      19.4764    12.0477    28.9935 H      42 HOH   0.0000 
126 H2      18.2261    12.6947    29.6406 H      42 HOH   0.0000 
127 O       15.6641    17.3557    26.0047 O.3    43 HOH   0.0000 
128 H1      16.6241    17.3557    26.0047 H      43 HOH   0.0000 
129 H2      15.3738    18.0027    26.6517 H      43 HOH   0.0000 
130 O        5.4120     7.0618    31.3856 O.3    44 HOH   0.0000 
131 H1       6.3720     7.0618    31.3856 H      44 HOH   0.0000 
132 H2       5.1217     7.7089    32.0327 H      44 HOH   0.0000 
133 O      -24.3335    23.9481    22.5519 O.3    45 HOH   0.0000 
134 H1     -23.3735    23.9481    22.5519 H      45 HOH   0.0000 
135 H2     -24.6237    24.5951    23.1990 H      45 HOH   0.0000 
136 O       15.5182     9.6440    34.1500 O.3    46 HOH   0.0000 
137 H1      16.4782     9.6440    34.1500 H      46 HOH   0.0000 
138 H2      15.2280    10.2910    34.7971 H      46 HOH   0.0000 
139 O       -0.4788    24.2968    54.2484 O.3    47 HOH   0.0000 
140 H1       0.4812    24.2968    54.2484 H      47 HOH   0.0000 
141 H2      -0.7691    24.9439    54.8955 H      47 HOH   0.0000 
142 O       -8.2163    -4.0520    18.3618 O.3    48 HOH   0.0000 
143 H1      -7.2563    -4.0520    18.3618 H      48 HOH   0.0000 
144 H2      -8.5066    -3.4050    19.0088 H      48 HOH   0.0000 
145 O       -1.4186    27.8017    48.0265 O.3    49 HOH   0.0000 
146 H1      -0.4586    27.8017    48.0265 H      49 HOH   0.0000 
147 H2      -1.7089    28.4487    48.6735 H      49 HOH   0.0000 
148 O       -0.5238    32.8160    23.1306 O.3    50 HOH   0.0000 
149 H1       0.4362    32.8160    23.1306 H      50 HOH   0.0000 
150 H2      -0.8141    33.4630    23.7777 H      50 HOH   0.0000 
151 O       13.0326    16.8158    27.0337 O.3    51 HOH   0.0000 
152 H1      13.9926    16.8158    27.0337 H      51 HOH   0.0000 
153 H2      12.7423    17.4629    27.6807 H      51 HOH   0.0000 
154 O       -0.3726    30.2978    17.5093 O.3    52 HOH   0.0000 
155 H1       0.5874    30.2978    17.5093 H      52 HOH   0.0000 
156 H2      -0.6629    30.9448    18.1563 H      52 HOH   0.0000 
157 O       -4.5368    25.4502    44.3936 O.3    53 HOH   0.0000 
158 H1      -3.5768    25.4502    44.3936 H      53 HOH   0.0000 
159 H2      -4.8271    26.0973    45.0407 H      53 HOH   0.0000 
160 O      -14.5792     2.4096    10.6187 O.3    54 HOH   0.0000 
161 H1     -13.6192     2.4096    10.6187 H      54 HOH   0.0000 
162 H2     -14.8694     3.0566    11.2658 H      54 HOH   0.0000 
163 O        6.8686    34.7637    56.7221 O.3    55 HOH   0.0000 
164 H1       7.8286    34.7637    56.7221 H      55 HOH   0.0000 
165 H2       6.5783    35.4107    57.3692 H      55 HOH   0.0000 
166 O        2.8630    30.1623     6.2061 O.3    56 HOH   0.0000 
167 H1       3.8230    30.1623     6.2061 H      56 HOH   0.0000 
168 H2       2.5728    30.8094     6.8532 H      56 HOH   0.0000 
169 O       -6.8725    13.8837    48.5170 O.3    57 HOH  -0.8340 
170 H1      -6.6352    14.4307    47.7682 H      57 HOH   0.4170 
171 H2      -6.9876    13.0081    48.1477 H      57 HOH   0.4170 
172 O       -8.8718    21.8806    49.9489 O.3    58 HOH   0.0000 
173 H1      -7.9118    21.8806    49.9489 H      58 HOH   0.0000 
174 H2      -9.1621    22.5277    50.5959 H      58 HOH   0.0000 
175 O        3.3470     4.9006    26.5815 O.3    59 HOH   0.0000 
176 H1       4.3070     4.9006    26.5815 H      59 HOH   0.0000 
177 H2       3.0568     5.5476    27.2285 H      59 HOH   0.0000 
178 O      -18.8023     0.8700    34.2980 O.3    60 HOH   0.0000 
179 H1     -17.8423     0.8700    34.2980 H      60 HOH   0.0000 
180 H2     -19.0925     1.5171    34.9450 H      60 HOH   0.0000 
181 O      -23.7159     1.6617    31.2145 O.3    61 HOH   0.0000 
182 H1     -22.7559     1.6617    31.2145 H      61 HOH   0.0000 
183 H2     -24.0062     2.3087    31.8615 H      61 HOH   0.0000 
184 O        1.8263    -3.9730    19.9638 O.3    62 HOH   0.0000 
185 H1       2.7863    -3.9730    19.9638 H      62 HOH   0.0000 
186 H2       1.5361    -3.3259    20.6109 H      62 HOH   0.0000 
187 O        5.0076    38.0601    56.8929 O.3    63 HOH   0.0000 
188 H1       5.9676    38.0601    56.8929 H      63 HOH   0.0000 
189 H2       4.7173    38.7072    57.5400 H      63 HOH   0.0000 
190 O      -16.0547    26.1506    43.3378 O.3    64 HOH   0.0000 
191 H1     -15.0947    26.1506    43.3378 H      64 HOH   0.0000 
192 H2     -16.3450    26.7976    43.9849 H      64 HOH   0.0000 
193 O      -12.0337     2.9578    40.6970 O.3    65 HOH   0.0000 
194 H1     -11.0737     2.9578    40.6970 H      65 HOH   0.0000 
195 H2     -12.3240     3.6049    41.3441 H      65 HOH   0.0000 
196 O      -17.3333     8.3065    19.0895 O.3    66 HOH   0.0000 
197 H1     -16.3733     8.3065    19.0895 H      66 HOH   0.0000 
198 H2     -17.6236     8.9535    19.7366 H      66 HOH   0.0000 
199 O        7.9193    12.6905    19.3322 O.3    67 HOH  -0.8340 
200 H1       8.7511    13.1626    19.3699 H      67 HOH   0.4170 
201 H2       8.1691    11.7713    19.2373 H      67 HOH   0.4170 
202 O       -6.0749    23.1431    47.6546 O.3    68 HOH   0.0000 
203 H1      -5.1149    23.1431    47.6546 H      68 HOH   0.0000 
204 H2      -6.3652    23.7901    48.3017 H      68 HOH   0.0000 
205 O      -15.7802     5.9874    48.3408 O.3    69 HOH   0.0000 
206 H1     -14.8202     5.9874    48.3408 H      69 HOH   0.0000 
207 H2     -16.0705     6.6345    48.9878 H      69 HOH   0.0000 
208 O       -0.8827    28.8881     6.7375 O.3    70 HOH   0.0000 
209 H1       0.0773    28.8881     6.7375 H      70 HOH   0.0000 
210 H2      -1.1730    29.5352     7.3845 H      70 HOH   0.0000 
211 O        5.7105    28.0080    18.0613 O.3    71 HOH   0.0000 
212 H1       6.6705    28.0080    18.0613 H      71 HOH   0.0000 
213 H2       5.4202    28.6551    18.7084 H      71 HOH   0.0000 
214 O      -23.5353     7.9516    22.5622 O.3    72 HOH   0.0000 
215 H1     -22.5753     7.9516    22.5622 H      72 HOH   0.0000 
216 H2     -23.8255     8.5986    23.2092 H      72 HOH   0.0000 
217 O      -16.7454    17.3911    49.2375 O.3    73 HOH   0.0000 
218 H1     -15.7854    17.3911    49.2375 H      73 HOH   0.0000 
219 H2     -17.0357    18.0382    49.8845 H      73 HOH   0.0000 
220 O      -22.9457    32.3179    26.3951 O.3    74 HOH   0.0000 
221 H1     -21.9857    32.3179    26.3951 H      74 HOH   0.0000 
222 H2     -23.2360    32.9650    27.0421 H      74 HOH   0.0000 
223 O      -11.2807     0.4458    30.3064 O.3    75 HOH   0.0000 
224 H1     -10.3207     0.4458    30.3064 H      75 HOH   0.0000 
225 H2     -11.5710     1.0928    30.9535 H      75 HOH   0.0000 
226 O      -12.5416     5.3722    11.2760 O.3    76 HOH   0.0000 
227 H1     -11.5816     5.3722    11.2760 H      76 HOH   0.0000 
228 H2     -12.8319     6.0192    11.9230 H      76 HOH   0.0000 
229 O        8.8321    17.7600    26.3708 O.3    77 HOH   0.0000 
230 H1       9.7921    17.7600    26.3708 H      77 HOH   0.0000 
231 H2       8.5419    18.4070    27.0179 H      77 HOH   0.0000 
232 O       -5.5690    27.5987    45.6218 O.3    78 HOH   0.0000 
233 H1      -4.6090    27.5987    45.6218 H      78 HOH   0.0000 
234 H2      -5.8593    28.2458    46.2688 H      78 HOH   0.0000 
235 O       -3.2980    27.1121     8.8198 O.3    79 HOH   0.0000 
236 H1      -2.3380    27.1121     8.8198 H      79 HOH   0.0000 
237 H2      -3.5883    27.7591     9.4669 H      79 HOH   0.0000 
238 O      -13.3174    20.0184    49.3394 O.3    80 HOH   0.0000 
239 H1     -12.3574    20.0184    49.3394 H      80 HOH   0.0000 
240 H2     -13.6077    20.6655    49.9865 H      80 HOH   0.0000 
241 O       -5.8186    18.2704    50.8128 O.3    81 HOH   0.0000 
242 H1      -4.8586    18.2704    50.8128 H      81 HOH   0.0000 
243 H2      -6.1089    18.9174    51.4599 H      81 HOH   0.0000 
244 O        6.3456    29.2744    24.2204 O.3    82 HOH   0.0000 
245 H1       7.3056    29.2744    24.2204 H      82 HOH   0.0000 
246 H2       6.0553    29.9214    24.8675 H      82 HOH   0.0000 
247 O      -16.9388     1.5929    30.0369 O.3    83 HOH   0.0000 
248 H1     -15.9788     1.5929    30.0369 H      83 HOH   0.0000 
249 H2     -17.2290     2.2399    30.6840 H      83 HOH   0.0000 
250 O       14.9163    27.2351    53.9018 O.3    84 HOH   0.0000 
251 H1      15.8763    27.2351    53.9018 H      84 HOH   0.0000 
252 H2      14.6260    27.8821    54.5488 H      84 HOH   0.0000 
253 O      -12.0151    30.8374    32.1648 O.3    85 HOH   0.0000 
254 H1     -11.0551    30.8374    32.1648 H      85 HOH   0.0000 
255 H2     -12.3054    31.4844    32.8119 H      85 HOH   0.0000 
256 O      -25.9794    33.0582    26.8269 O.3    86 HOH   0.0000 
257 H1     -25.0194    33.0582    26.8269 H      86 HOH   0.0000 
258 H2     -26.2697    33.7053    27.4739 H      86 HOH   0.0000 
259 O        8.4295    28.5977    54.8436 O.3    87 HOH   0.0000 
260 H1       9.3895    28.5977    54.8436 H      87 HOH   0.0000 
261 H2       8.1392    29.2448    55.4907 H      87 HOH   0.0000 
262 O       -1.8907    32.6755    27.2012 O.3    88 HOH   0.0000 
263 H1      -0.9307    32.6755    27.2012 H      88 HOH   0.0000 
264 H2      -2.1810    33.3226    27.8482 H      88 HOH   0.0000 
265 O      -30.4804    29.0720    33.5250 O.3    89 HOH   0.0000 
266 H1     -29.5204    29.0720    33.5250 H      89 HOH   0.0000 
267 H2     -30.7707    29.7191    34.1721 H      89 HOH   0.0000 
268 O        1.3370    38.0734    50.5593 O.3    90 HOH   0.0000 
269 H1       2.2970    38.0734    50.5593 H      90 HOH   0.0000 
270 H2       1.0467    38.7205    51.2063 H      90 HOH   0.0000 
271 O       23.3820    14.2993    33.2532 O.3    91 HOH   0.0000 
272 H1      24.3420    14.2993    33.2532 H      91 HOH   0.0000 
273 H2      23.0918    14.9464    33.9003 H      91 HOH   0.0000 
274 O      -22.4827    25.2894    35.0063 O.3    92 HOH   0.0000 
275 H1     -21.5227    25.2894    35.0063 H      92 HOH   0.0000 
276 H2     -22.7730    25.9364    35.6534 H      92 HOH   0.0000 
277 O       -1.5513    17.6194    52.6311 O.3    93 HOH   0.0000 
278 H1      -0.5913    17.6194    52.6311 H      93 HOH   0.0000 
279 H2      -1.8415    18.2664    53.2781 H      93 HOH   0.0000 
280 O        1.1039    -1.0921    24.4938 O.3    94 HOH   0.0000 
281 H1       2.0639    -1.0921    24.4938 H      94 HOH   0.0000 
282 H2       0.8136    -0.4451    25.1409 H      94 HOH   0.0000 
283 O      -19.5074    -0.1085    31.3252 O.3    95 HOH   0.0000 
284 H1     -18.5474    -0.1085    31.3252 H      95 HOH   0.0000 
285 H2     -19.7977     0.5385    31.9722 H      95 HOH   0.0000 
286 O        5.7294    35.3670    54.5056 O.3    96 HOH   0.0000 
287 H1       6.6894    35.3670    54.5056 H      96 HOH   0.0000 
288 H2       5.4391    36.0140    55.1527 H      96 HOH   0.0000 
289 O       -6.7796    30.4889    16.4088 O.3    97 HOH   0.0000 
290 H1      -5.8196    30.4889    16.4088 H      97 HOH   0.0000 
291 H2      -7.0699    31.1359    17.0559 H      97 HOH   0.0000 
292 O       -8.2884    25.7695    14.5826 O.3    98 HOH   0.0000 
293 H1      -7.3284    25.7695    14.5826 H      98 HOH   0.0000 
294 H2      -8.5787    26.4165    15.2297 H      98 HOH   0.0000 
295 O      -12.4813     1.3112    28.5754 O.3    99 HOH   0.0000 
296 H1     -11.5213     1.3112    28.5754 H      99 HOH   0.0000 
297 H2     -12.7716     1.9583    29.2225 H      99 HOH   0.0000 
298 O       -1.3566     4.9487    27.1437 O.3   100 HOH   0.0000 
299 H1      -0.3966     4.9487    27.1437 H     100 HOH   0.0000 
300 H2      -1.6469     5.5957    27.7907 H     100 HOH   0.0000 
301 O      -18.3445    20.1946    49.4895 O.3   101 HOH   0.0000 
302 H1     -17.3845    20.1946    49.4895 H     101 HOH   0.0000 
303 H2     -18.6348    20.8417    50.1366 H     101 HOH   0.0000 
304 O       -8.0347    34.5582    26.3899 O.3   102 HOH   0.0000 
305 H1      -7.0747    34.5582    26.3899 H     102 HOH   0.0000 
306 H2      -8.3249    35.2053    27.0370 H     102 HOH   0.0000 
307 O      -12.4738    -0.2735    32.8874 O.3   103 HOH   0.0000 
308 H1     -11.5138    -0.2735    32.8874 H     103 HOH   0.0000 
309 H2     -12.7641     0.3735    33.5344 H     103 HOH   0.0000 
310 O      -17.0378    31.5903    28.2228 O.3   104 HOH   0.0000 
311 H1     -16.0778    31.5903    28.2228 H     104 HOH   0.0000 
312 H2     -17.3281    32.2373    28.8698 H     104 HOH   0.0000 
313 O      -11.4558    34.3982    21.9162 O.3   105 HOH   0.0000 
314 H1     -10.4958    34.3982    21.9162 H     105 HOH   0.0000 
315 H2     -11.7461    35.0453    22.5633 H     105 HOH   0.0000 
316 O        5.4426    24.3681     8.9251 O.3   106 HOH   0.0000 
317 H1       6.4026    24.3681     8.9251 H     106 HOH   0.0000 
318 H2       5.1523    25.0151     9.5722 H     106 HOH   0.0000 
319 O      -15.3777    29.7896    29.1775 O.3   107 HOH   0.0000 
320 H1     -14.4177    29.7896    29.1775 H     107 HOH   0.0000 
321 H2     -15.6679    30.4366    29.8246 H     107 HOH   0.0000 
322 O       -8.4982    35.2086    33.6909 O.3   108 HOH   0.0000 
323 H1      -7.5382    35.2086    33.6909 H     108 HOH   0.0000 
324 H2      -8.7885    35.8557    34.3379 H     108 HOH   0.0000 
325 O       -1.3216     5.0548    32.8953 O.3   109 HOH   0.0000 
326 H1      -0.3616     5.0548    32.8953 H     109 HOH   0.0000 
327 H2      -1.6119     5.7018    33.5423 H     109 HOH   0.0000 
328 O      -26.2397    14.3148    21.0891 O.3   110 HOH   0.0000 
329 H1     -25.2797    14.3148    21.0891 H     110 HOH   0.0000 
330 H2     -26.5300    14.9618    21.7362 H     110 HOH   0.0000 
331 O      -13.9106    -1.4329    31.0580 O.3   111 HOH   0.0000 
332 H1     -12.9506    -1.4329    31.0580 H     111 HOH   0.0000 
333 H2     -14.2009    -0.7859    31.7051 H     111 HOH   0.0000 
334 O      -15.0945    -0.1341    38.5696 O.3   112 HOH   0.0000 
335 H1     -14.1345    -0.1341    38.5696 H     112 HOH   0.0000 
336 H2     -15.3848     0.5130    39.2167 H     112 HOH   0.0000 
337 O      -18.5442    26.2504    37.8805 O.3   113 HOH   0.0000 
338 H1     -17.5842    26.2504    37.8805 H     113 HOH   0.0000 
339 H2     -18.8345    26.8975    38.5276 H     113 HOH   0.0000 
340 O       -4.4435    -0.3419    12.9364 O.3   114 HOH   0.0000 
341 H1      -3.4835    -0.3419    12.9364 H     114 HOH   0.0000 
342 H2      -4.7337     0.3052    13.5834 H     114 HOH   0.0000 
343 O      -15.5839    21.5332    49.2146 O.3   115 HOH   0.0000 
344 H1     -14.6239    21.5332    49.2146 H     115 HOH   0.0000 
345 H2     -15.8741    22.1802    49.8616 H     115 HOH   0.0000 
346 O      -12.1418     9.5202     9.3352 O.3   116 HOH   0.0000 
347 H1     -11.1818     9.5202     9.3352 H     116 HOH   0.0000 
348 H2     -12.4321    10.1673     9.9822 H     116 HOH   0.0000 
349 O       -6.3164    -5.3243    33.3583 O.3   117 HOH   0.0000 
350 H1      -5.3564    -5.3243    33.3583 H     117 HOH   0.0000 
351 H2      -6.6067    -4.6772    34.0053 H     117 HOH   0.0000 
352 O      -23.4595    -0.5338    32.9366 O.3   118 HOH   0.0000 
353 H1     -22.4995    -0.5338    32.9366 H     118 HOH   0.0000 
354 H2     -23.7497     0.1133    33.5836 H     118 HOH   0.0000 
355 O        3.9298    26.2329     4.9946 O.3   119 HOH   0.0000 
356 H1       4.8898    26.2329     4.9946 H     119 HOH   0.0000 
357 H2       3.6395    26.8800     5.6417 H     119 HOH   0.0000 
358 O       -6.5194    -8.4667    30.0019 O.3   120 HOH   0.0000 
359 H1      -5.5594    -8.4667    30.0019 H     120 HOH   0.0000 
360 H2      -6.8097    -7.8196    30.6490 H     120 HOH   0.0000 
361 O       -8.2334    26.4311    17.3426 O.3   121 HOH   0.0000 
362 H1      -7.2734    26.4311    17.3426 H     121 HOH   0.0000 
363 H2      -8.5237    27.0782    17.9897 H     121 HOH   0.0000 
364 O      -14.4953     0.2199    29.0411 O.3   122 HOH   0.0000 
365 H1     -13.5353     0.2199    29.0411 H     122 HOH   0.0000 
366 H2     -14.7856     0.8670    29.6881 H     122 HOH   0.0000 
367 O        2.4735    17.3352    55.4465 O.3   123 HOH   0.0000 
368 H1       3.4335    17.3352    55.4465 H     123 HOH   0.0000 
369 H2       2.1832    17.9823    56.0936 H     123 HOH   0.0000 
370 O       15.8989    10.6655    36.3020 O.3   124 HOH   0.0000 
371 H1      16.8589    10.6655    36.3020 H     124 HOH   0.0000 
372 H2      15.6086    11.3125    36.9491 H     124 HOH   0.0000 
373 O        3.2120    10.9252    33.8682 O.3   125 HOH   0.0000 
374 H1       4.1720    10.9252    33.8682 H     125 HOH   0.0000 
375 H2       2.9218    11.5723    34.5153 H     125 HOH   0.0000 
376 O       -8.5995     7.0222     8.3946 O.3   126 HOH   0.0000 
377 H1      -7.6395     7.0222     8.3946 H     126 HOH   0.0000 
378 H2      -8.8898     7.6693     9.0416 H     126 HOH   0.0000 
379 O       -7.8937    28.8363    45.2423 O.3   127 HOH   0.0000 
380 H1      -6.9337    28.8363    45.2423 H     127 HOH   0.0000 
381 H2      -8.1840    29.4834    45.8893 H     127 HOH   0.0000 
382 O      -14.4134     0.7468    34.1429 O.3   128 HOH   0.0000 
383 H1     -13.4534     0.7468    34.1429 H     128 HOH   0.0000 
384 H2     -14.7037     1.3939    34.7899 H     128 HOH   0.0000 
385 O      -19.1997    -5.4455    18.8784 O.3   129 HOH   0.0000 
386 H1     -18.2397    -5.4455    18.8784 H     129 HOH   0.0000 
387 H2     -19.4900    -4.7985    19.5255 H     129 HOH   0.0000 
388 O       15.3210    10.5593    15.4551 O.3   130 HOH   0.0000 
389 H1      16.2810    10.5593    15.4551 H     130 HOH   0.0000 
390 H2      15.0308    11.2064    16.1021 H     130 HOH   0.0000 
391 O        6.7512    30.8479    22.0317 O.3   131 HOH   0.0000 
392 H1       7.7112    30.8479    22.0317 H     131 HOH   0.0000 
393 H2       6.4609    31.4950    22.6787 H     131 HOH   0.0000 
394 O       -1.7011     3.6973    29.9239 O.3   132 HOH   0.0000 
395 H1      -0.7411     3.6973    29.9239 H     132 HOH   0.0000 
396 H2      -1.9914     4.3444    30.5709 H     132 HOH   0.0000 
397 O       -6.0024    -5.7285    17.0275 O.3   133 HOH   0.0000 
398 H1      -5.0424    -5.7285    17.0275 H     133 HOH   0.0000 
399 H2      -6.2927    -5.0815    17.6746 H     133 HOH   0.0000 
400 O       -3.1360    30.0583    35.5497 O.3   134 HOH   0.0000 
401 H1      -2.1760    30.0583    35.5497 H     134 HOH   0.0000 
402 H2      -3.4263    30.7053    36.1967 H     134 HOH   0.0000 
403 O        1.6041    30.3099    36.0581 O.3   135 HOH   0.0000 
404 H1       2.5641    30.3099    36.0581 H     135 HOH   0.0000 
405 H2       1.3138    30.9570    36.7051 H     135 HOH   0.0000 
406 O       -7.9776    33.5887    31.7032 O.3   136 HOH   0.0000 
407 H1      -7.0176    33.5887    31.7032 H     136 HOH   0.0000 
408 H2      -8.2679    34.2357    32.3502 H     136 HOH   0.0000 
409 O       13.3951    22.7016    53.5512 O.3   137 HOH   0.0000 
410 H1      14.3551    22.7016    53.5512 H     137 HOH   0.0000 
411 H2      13.1048    23.3486    54.1982 H     137 HOH   0.0000 
412 O      -13.3445     5.2575    23.1911 O.3   138 HOH   0.0000 
413 H1     -12.3845     5.2575    23.1911 H     138 HOH   0.0000 
414 H2     -13.6347     5.9046    23.8381 H     138 HOH   0.0000 
415 O       -8.3134     7.1186    22.8696 O.3   139 HOH   0.0000 
416 H1      -7.3534     7.1186    22.8696 H     139 HOH   0.0000 
417 H2      -8.6037     7.7656    23.5167 H     139 HOH   0.0000 
418 O       -4.9354    13.7200    21.4699 O.3   140 HOH   0.0000 
419 H1      -3.9754    13.7200    21.4699 H     140 HOH   0.0000 
420 H2      -5.2257    14.3671    22.1170 H     140 HOH   0.0000 
421 O       -3.9240    15.8047    25.1883 O.3   141 HOH   0.0000 
422 H1      -2.9640    15.8047    25.1883 H     141 HOH   0.0000 
423 H2      -4.2143    16.4517    25.8353 H     141 HOH   0.0000 
424 O        1.7499    18.3071    28.7952 O.3   142 HOH   0.0000 
425 H1       2.7099    18.3071    28.7952 H     142 HOH   0.0000 
426 H2       1.4596    18.9541    29.4423 H     142 HOH   0.0000 
427 O       -3.5318     7.2798    34.5032 O.3   143 HOH   0.0000 
428 H1      -2.5718     7.2798    34.5032 H     143 HOH   0.0000 
429 H2      -3.8221     7.9269    35.1502 H     143 HOH   0.0000 
430 O       -5.5075    23.2116    23.2499 O.3   144 HOH   0.0000 
431 H1      -4.5475    23.2116    23.2499 H     144 HOH   0.0000 
432 H2      -5.7977    23.8586    23.8969 H     144 HOH   0.0000 
433 O       -8.8482    -1.6867    12.4021 O.3   145 HOH   0.0000 
434 H1      -7.8882    -1.6867    12.4021 H     145 HOH   0.0000 
435 H2      -9.1385    -1.0397    13.0491 H     145 HOH   0.0000 
436 O       -5.5081    23.9325    17.2306 O.3   146 HOH  -0.8340 
437 H1      -4.9043    23.6742    16.5342 H     146 HOH   0.4170 
438 H2      -5.9439    24.7148    16.8925 H     146 HOH   0.4170 
439 O       -7.9160    22.6381    16.6717 O.3   147 HOH   0.0000 
440 H1      -6.9560    22.6381    16.6717 H     147 HOH   0.0000 
441 H2      -8.2063    23.2851    17.3188 H     147 HOH   0.0000 
442 O       -3.0396    15.6730    22.2393 O.3   148 HOH   0.0000 
443 H1      -2.0796    15.6730    22.2393 H     148 HOH   0.0000 
444 H2      -3.3298    16.3200    22.8863 H     148 HOH   0.0000 
445 O      -16.4462     2.4251    33.0406 O.3   149 HOH   0.0000 
446 H1     -15.4862     2.4251    33.0406 H     149 HOH   0.0000 
447 H2     -16.7365     3.0722    33.6876 H     149 HOH   0.0000 
448 O       -5.3432     9.6642    34.0195 O.3   150 HOH   0.0000 
449 H1      -4.3832     9.6642    34.0195 H     150 HOH   0.0000 
450 H2      -5.6335    10.3113    34.6665 H     150 HOH   0.0000 
451 O       -8.0882    11.7898    12.9693 O.3   151 HOH   0.0000 
452 H1      -7.1282    11.7898    12.9693 H     151 HOH   0.0000 
453 H2      -8.3785    12.4369    13.6163 H     151 HOH   0.0000 
454 O       -6.0535     6.5366    21.3883 O.3   152 HOH   0.0000 
455 H1      -5.0935     6.5366    21.3883 H     152 HOH   0.0000 
456 H2      -6.3438     7.1836    22.0353 H     152 HOH   0.0000 
457 O       -8.3817     7.1140    35.4872 O.3   153 HOH   0.0000 
458 H1      -7.4217     7.1140    35.4872 H     153 HOH   0.0000 
459 H2      -8.6720     7.7610    36.1342 H     153 HOH   0.0000 
460 O       -7.1389     4.6859    15.0206 O.3   154 HOH   0.0000 
461 H1      -6.1789     4.6859    15.0206 H     154 HOH   0.0000 
462 H2      -7.4292     5.3330    15.6676 H     154 HOH   0.0000 
463 O      -10.0232    23.8591    17.9697 O.3   155 HOH   0.0000 
464 H1      -9.0632    23.8591    17.9697 H     155 HOH   0.0000 
465 H2     -10.3135    24.5061    18.6167 H     155 HOH   0.0000 
466 O        2.9843    15.8270    30.1576 O.3   156 HOH   0.0000 
467 H1       3.9443    15.8270    30.1576 H     156 HOH   0.0000 
468 H2       2.6941    16.4740    30.8047 H     156 HOH   0.0000 
469 O      -20.8316    15.3265    45.1939 O.3   157 HOH   0.0000 
470 H1     -19.8716    15.3265    45.1939 H     157 HOH   0.0000 
471 H2     -21.1219    15.9735    45.8410 H     157 HOH   0.0000 
472 O       -5.8694    26.1179    19.0258 O.3   158 HOH   0.0000 
473 H1      -4.9094    26.1179    19.0258 H     158 HOH   0.0000 
474 H2      -6.1597    26.7649    19.6729 H     158 HOH   0.0000 
475 O      -20.7893     7.5768    36.3394 O.3   159 HOH   0.0000 
476 H1     -19.8293     7.5768    36.3394 H     159 HOH   0.0000 
477 H2     -21.0796     8.2238    36.9864 H     159 HOH   0.0000 
478 O       -6.2080    10.1690    11.3998 O.3   160 HOH   0.0000 
479 H1      -5.2480    10.1690    11.3998 H     160 HOH   0.0000 
480 H2      -6.4982    10.8160    12.0469 H     160 HOH   0.0000 
481 O      -26.2762    14.9078    40.6319 O.3   161 HOH   0.0000 
482 H1     -25.3162    14.9078    40.6319 H     161 HOH   0.0000 
483 H2     -26.5665    15.5548    41.2789 H     161 HOH   0.0000 
484 O      -16.2482    23.3961    17.0342 O.3   162 HOH   0.0000 
485 H1     -15.2882    23.3961    17.0342 H     162 HOH   0.0000 
486 H2     -16.5385    24.0432    17.6813 H     162 HOH   0.0000 
487 O        2.2908     6.3619    16.3347 O.3   163 HOH   0.0000 
488 H1       3.2508     6.3619    16.3347 H     163 HOH   0.0000 
489 H2       2.0006     7.0090    16.9817 H     163 HOH   0.0000 
490 O       -0.7693     2.3777    17.2919 O.3   164 HOH   0.0000 
491 H1       0.1907     2.3777    17.2919 H     164 HOH   0.0000 
492 H2      -1.0595     3.0247    17.9389 H     164 HOH   0.0000 
493 O        6.3878    25.3964    22.3557 O.3   165 HOH   0.0000 
494 H1       7.3478    25.3964    22.3557 H     165 HOH   0.0000 
495 H2       6.0976    26.0434    23.0028 H     165 HOH   0.0000 
496 O      -12.2118    24.9311    16.9112 O.3   166 HOH   0.0000 
497 H1     -11.2518    24.9311    16.9112 H     166 HOH   0.0000 
498 H2     -12.5021    25.5781    17.5583 H     166 HOH   0.0000 
499 O       -5.2671     1.0961    30.4843 O.3   167 HOH   0.0000 
500 H1      -4.3071     1.0961    30.4843 H     167 HOH   0.0000 
501 H2      -5.5573     1.7432    31.1313 H     167 HOH   0.0000 
502 O       -6.1626    12.7698    44.7575 O.3   168 HOH  -0.8340 
503 H1      -6.7124    12.7462    43.9743 H     168 HOH   0.4170 
504 H2      -6.2718    13.6567    45.1007 H     168 HOH   0.4170 
505 O       -2.2872     7.4892    37.0617 O.3   169 HOH   0.0000 
506 H1      -1.3272     7.4892    37.0617 H     169 HOH   0.0000 
507 H2      -2.5775     8.1363    37.7088 H     169 HOH   0.0000 
508 O      -13.2390    30.5109    22.5142 O.3   170 HOH   0.0000 
509 H1     -12.2790    30.5109    22.5142 H     170 HOH   0.0000 
510 H2     -13.5293    31.1579    23.1613 H     170 HOH   0.0000 
511 O        1.2591    -1.1468    21.2439 O.3   171 HOH   0.0000 
512 H1       2.2191    -1.1468    21.2439 H     171 HOH   0.0000 
513 H2       0.9689    -0.4998    21.8909 H     171 HOH   0.0000 
514 O        4.8119    24.2711    18.4707 O.3   172 HOH  -0.8340 
515 H1       4.4728    25.0551    18.9026 H     172 HOH   0.4170 
516 H2       5.5957    24.0420    18.9702 H     172 HOH   0.4170 
517 O        5.9963    16.5724    51.1929 O.3   173 HOH   0.0000 
518 H1       6.9563    16.5724    51.1929 H     173 HOH   0.0000 
519 H2       5.7060    17.2194    51.8399 H     173 HOH   0.0000 
520 O      -26.3610     5.5188    32.0232 O.3   174 HOH   0.0000 
521 H1     -25.4010     5.5188    32.0232 H     174 HOH   0.0000 
522 H2     -26.6513     6.1659    32.6702 H     174 HOH   0.0000 
523 O       16.8311    30.0767    43.1162 O.3   175 HOH   0.0000 
524 H1      17.7911    30.0767    43.1162 H     175 HOH   0.0000 
525 H2      16.5409    30.7237    43.7632 H     175 HOH   0.0000 
526 O      -20.1520    24.2440    43.8551 O.3   176 HOH   0.0000 
527 H1     -19.1920    24.2440    43.8551 H     176 HOH   0.0000 
528 H2     -20.4423    24.8910    44.5021 H     176 HOH   0.0000 
529 O       -3.7918     3.1625    31.6026 O.3   177 HOH   0.0000 
530 H1      -2.8318     3.1625    31.6026 H     177 HOH   0.0000 
531 H2      -4.0820     3.8096    32.2496 H     177 HOH   0.0000 
532 O      -14.4098    24.2603    15.2928 O.3   178 HOH   0.0000 
533 H1     -13.4498    24.2603    15.2928 H     178 HOH   0.0000 
534 H2     -14.7001    24.9074    15.9399 H     178 HOH   0.0000 
535 O        5.4629    23.9739    15.9055 O.3   179 HOH  -0.8340 
536 H1       4.9670    24.7087    15.5445 H     179 HOH   0.4170 
537 H2       5.2894    24.0064    16.8463 H     179 HOH   0.4170 
538 O        8.1545    25.6666    26.5480 O.3   180 HOH   0.0000 
539 H1       9.1145    25.6666    26.5480 H     180 HOH   0.0000 
540 H2       7.8643    26.3136    27.1950 H     180 HOH   0.0000 
541 O        8.7465    21.9038    24.4011 O.3   181 HOH  -0.8340 
542 H1       8.5637    22.0399    25.3308 H     181 HOH   0.4170 
543 H2       9.3202    22.6312    24.1603 H     181 HOH   0.4170 
544 O       -6.1182     6.1715    36.5079 O.3   182 HOH   0.0000 
545 H1      -5.1582     6.1715    36.5079 H     182 HOH   0.0000 
546 H2      -6.4085     6.8185    37.1550 H     182 HOH   0.0000 
547 O       -0.7402    28.9942    34.9411 O.3   183 HOH   0.0000 
548 H1       0.2198    28.9942    34.9411 H     183 HOH   0.0000 
549 H2      -1.0304    29.6412    35.5882 H     183 HOH   0.0000 
550 O       13.5342    23.1557    27.7917 O.3   184 HOH   0.0000 
551 H1      14.4942    23.1557    27.7917 H     184 HOH   0.0000 
552 H2      13.2439    23.8027    28.4388 H     184 HOH   0.0000 
553 O      -21.8887    23.1624    21.5678 O.3   185 HOH   0.0000 
554 H1     -20.9287    23.1624    21.5678 H     185 HOH   0.0000 
555 H2     -22.1790    23.8094    22.2149 H     185 HOH   0.0000 
556 O      -12.7016    29.8261    29.5949 O.3   186 HOH   0.0000 
557 H1     -11.7416    29.8261    29.5949 H     186 HOH   0.0000 
558 H2     -12.9918    30.4732    30.2419 H     186 HOH   0.0000 
559 O        6.8950    24.0514    24.6829 O.3   187 HOH   0.0000 
560 H1       7.8550    24.0514    24.6829 H     187 HOH   0.0000 
561 H2       6.6047    24.6985    25.3299 H     187 HOH   0.0000 
562 O      -15.6082    25.0149    19.1394 O.3   188 HOH   0.0000 
563 H1     -14.6482    25.0149    19.1394 H     188 HOH   0.0000 
564 H2     -15.8985    25.6619    19.7865 H     188 HOH   0.0000 
565 O      -10.2683    21.4534    12.5812 O.3   189 HOH   0.0000 
566 H1      -9.3083    21.4534    12.5812 H     189 HOH   0.0000 
567 H2     -10.5586    22.1004    13.2282 H     189 HOH   0.0000 
568 O      -24.8329    15.4314    25.1708 O.3   190 HOH   0.0000 
569 H1     -23.8729    15.4314    25.1708 H     190 HOH   0.0000 
570 H2     -25.1232    16.0784    25.8179 H     190 HOH   0.0000 
571 O      -19.1342     4.3427    36.7462 O.3   191 HOH   0.0000 
572 H1     -18.1742     4.3427    36.7462 H     191 HOH   0.0000 
573 H2     -19.4245     4.9898    37.3933 H     191 HOH   0.0000 
574 O        4.9168    21.9729    14.1514 O.3   192 HOH  -0.8340 
575 H1       5.4840    22.7304    14.2952 H     192 HOH   0.4170 
576 H2       4.3252    22.2458    13.4502 H     192 HOH   0.4170 
577 O      -24.4181    18.2838    26.6778 O.3   193 HOH   0.0000 
578 H1     -23.4581    18.2838    26.6778 H     193 HOH   0.0000 
579 H2     -24.7084    18.9308    27.3249 H     193 HOH   0.0000 
580 O       -5.3708    34.1924    25.6236 O.3   194 HOH   0.0000 
581 H1      -4.4108    34.1924    25.6236 H     194 HOH   0.0000 
582 H2      -5.6611    34.8394    26.2706 H     194 HOH   0.0000 
583 O      -11.5070    31.8847    28.0607 O.3   195 HOH   0.0000 
584 H1     -10.5470    31.8847    28.0607 H     195 HOH   0.0000 
585 H2     -11.7973    32.5317    28.7077 H     195 HOH   0.0000 
586 O       -4.2589    17.6341    15.0406 O.3   196 HOH  -0.8340 
587 H1      -4.7444    18.1905    15.6496 H     196 HOH   0.4170 
588 H2      -3.8955    16.9385    15.5887 H     196 HOH   0.4170 
589 O       -8.7424    13.2059    10.7372 O.3   197 HOH   0.0000 
590 H1      -7.7824    13.2059    10.7372 H     197 HOH   0.0000 
591 H2      -9.0327    13.8530    11.3843 H     197 HOH   0.0000 
592 O      -22.4297    19.3613    43.4860 O.3   198 HOH   0.0000 
593 H1     -21.4697    19.3613    43.4860 H     198 HOH   0.0000 
594 H2     -22.7199    20.0084    44.1330 H     198 HOH   0.0000 
595 O      -25.3416     3.0238    32.8454 O.3   199 HOH   0.0000 
596 H1     -24.3816     3.0238    32.8454 H     199 HOH   0.0000 
597 H2     -25.6319     3.6708    33.4924 H     199 HOH   0.0000 
598 O      -13.2143    26.2325    19.3980 O.3   200 HOH   0.0000 
599 H1     -12.2543    26.2325    19.3980 H     200 HOH   0.0000 
600 H2     -13.5046    26.8796    20.0451 H     200 HOH   0.0000 
601 O      -11.4139    28.4679    22.5721 O.3   201 HOH   0.0000 
602 H1     -10.4539    28.4679    22.5721 H     201 HOH   0.0000 
603 H2     -11.7042    29.1149    23.2191 H     201 HOH   0.0000 
604 O      -24.4046     8.2719    38.7436 O.3   202 HOH   0.0000 
605 H1     -23.4446     8.2719    38.7436 H     202 HOH   0.0000 
606 H2     -24.6949     8.9190    39.3906 H     202 HOH   0.0000 
607 O       -5.1022     5.6603    16.5702 O.3   203 HOH   0.0000 
608 H1      -4.1422     5.6603    16.5702 H     203 HOH   0.0000 
609 H2      -5.3925     6.3074    17.2173 H     203 HOH   0.0000 
610 O       -0.3443    32.3818    36.3022 O.3   204 HOH   0.0000 
611 H1       0.6157    32.3818    36.3022 H     204 HOH   0.0000 
612 H2      -0.6346    33.0288    36.9492 H     204 HOH   0.0000 
613 O        7.3070    24.3611    20.0069 O.3   205 HOH  -0.8340 
614 H1       7.9029    23.6122    19.9992 H     205 HOH   0.4170 
615 H2       7.7495    25.0254    19.4786 H     205 HOH   0.4170 
616 O       -5.0712     4.9713    19.2201 O.3   206 HOH   0.0000 
617 H1      -4.1112     4.9713    19.2201 H     206 HOH   0.0000 
618 H2      -5.3614     5.6183    19.8671 H     206 HOH   0.0000 
619 O        3.5538    16.1924    52.7642 O.3   207 HOH   0.0000 
620 H1       4.5138    16.1924    52.7642 H     207 HOH   0.0000 
621 H2       3.2635    16.8394    53.4113 H     207 HOH   0.0000 
622 O       16.3037    23.5023    28.0133 O.3   208 HOH   0.0000 
623 H1      17.2637    23.5023    28.0133 H     208 HOH   0.0000 
624 H2      16.0134    24.1493    28.6603 H     208 HOH   0.0000 
625 O       10.5401    25.6601    25.5430 O.3   209 HOH   0.0000 
626 H1      11.5001    25.6601    25.5430 H     209 HOH   0.0000 
627 H2      10.2499    26.3072    26.1900 H     209 HOH   0.0000 
628 O       12.5331    25.6867    27.5991 O.3   210 HOH   0.0000 
629 H1      13.4931    25.6867    27.5991 H     210 HOH   0.0000 
630 H2      12.2429    26.3338    28.2462 H     210 HOH   0.0000 
631 O       -5.1397    29.6780    38.5479 O.3   211 HOH   0.0000 
632 H1      -4.1797    29.6780    38.5479 H     211 HOH   0.0000 
633 H2      -5.4300    30.3251    39.1950 H     211 HOH   0.0000 
634 O       -6.7897    33.9370    35.9479 O.3   212 HOH   0.0000 
635 H1      -5.8297    33.9370    35.9479 H     212 HOH   0.0000 
636 H2      -7.0800    34.5840    36.5949 H     212 HOH   0.0000 
637 O       -3.0323    27.3943    40.9673 O.3   213 HOH   0.0000 
638 H1      -2.0723    27.3943    40.9673 H     213 HOH   0.0000 
639 H2      -3.3226    28.0414    41.6144 H     213 HOH   0.0000 
640 O       -5.5977     4.0262    37.9309 O.3   214 HOH   0.0000 
641 H1      -4.6377     4.0262    37.9309 H     214 HOH   0.0000 
642 H2      -5.8880     4.6733    38.5779 H     214 HOH   0.0000 
643 O      -17.5329     9.7911    48.0701 O.3   215 HOH   0.0000 
644 H1     -16.5729     9.7911    48.0701 H     215 HOH   0.0000 
645 H2     -17.8232    10.4381    48.7172 H     215 HOH   0.0000 
646 O      -17.6939    28.1449    24.7844 O.3   216 HOH   0.0000 
647 H1     -16.7339    28.1449    24.7844 H     216 HOH   0.0000 
648 H2     -17.9842    28.7919    25.4314 H     216 HOH   0.0000 
649 O        1.3490    13.2644    35.2850 O.3   217 HOH  -0.8340 
650 H1       0.4391    13.5174    35.4413 H     217 HOH   0.4170 
651 H2       1.6176    13.7886    34.5304 H     217 HOH   0.4170 
652 O       -2.6581     3.7186    20.2308 O.3   218 HOH   0.0000 
653 H1      -1.6981     3.7186    20.2308 H     218 HOH   0.0000 
654 H2      -2.9484     4.3656    20.8778 H     218 HOH   0.0000 
655 O       -2.9866    18.3794    21.3090 O.3   219 HOH   0.0000 
656 H1      -2.0266    18.3794    21.3090 H     219 HOH   0.0000 
657 H2      -3.2768    19.0265    21.9560 H     219 HOH   0.0000 
658 O       -7.7224    20.9268    14.1688 O.3   220 HOH  -0.8340 
659 H1      -7.2939    20.6341    13.3644 H     220 HOH   0.4170 
660 H2      -8.6557    20.9286    13.9565 H     220 HOH   0.4170 
661 O      -15.3433     1.8805    36.9549 O.3   221 HOH   0.0000 
662 H1     -14.3833     1.8805    36.9549 H     221 HOH   0.0000 
663 H2     -15.6336     2.5276    37.6020 H     221 HOH   0.0000 
664 O      -10.1628    11.4231     8.8828 O.3   222 HOH   0.0000 
665 H1      -9.2028    11.4231     8.8828 H     222 HOH   0.0000 
666 H2     -10.4531    12.0701     9.5299 H     222 HOH   0.0000 
667 O      -21.3637    24.8930    19.4222 O.3   223 HOH   0.0000 
668 H1     -20.4037    24.8930    19.4222 H     223 HOH   0.0000 
669 H2     -21.6539    25.5400    20.0693 H     223 HOH   0.0000 
670 O       -8.3521    35.1421    29.4091 O.3   224 HOH   0.0000 
671 H1      -7.3921    35.1421    29.4091 H     224 HOH   0.0000 
672 H2      -8.6424    35.7891    30.0561 H     224 HOH   0.0000 
673 O      -26.6188     9.1162    36.1574 O.3   225 HOH   0.0000 
674 H1     -25.6588     9.1162    36.1574 H     225 HOH   0.0000 
675 H2     -26.9091     9.7633    36.8044 H     225 HOH   0.0000 
676 O        2.7976    24.6402    15.6333 O.3   226 HOH  -0.8340 
677 H1       3.1796    24.0417    16.2754 H     226 HOH   0.4170 
678 H2       2.1937    24.0962    15.1278 H     226 HOH   0.4170 
679 O        1.5527     2.0941    21.5403 O.3   227 HOH   0.0000 
680 H1       2.5127     2.0941    21.5403 H     227 HOH   0.0000 
681 H2       1.2625     2.7412    22.1874 H     227 HOH   0.0000 
682 O      -22.7130    21.0037    20.3047 O.3   228 HOH   0.0000 
683 H1     -21.7530    21.0037    20.3047 H     228 HOH   0.0000 
684 H2     -23.0032    21.6508    20.9518 H     228 HOH   0.0000 
685 O        0.9580    11.4847    37.2906 O.3   229 HOH  -0.8340 
686 H1       1.3276    12.0123    36.5825 H     229 HOH   0.4170 
687 H2       0.4815    12.1124    37.8339 H     229 HOH   0.4170 
688 O       -7.1122     5.4821    10.1323 O.3   230 HOH   0.0000 
689 H1      -6.1522     5.4821    10.1323 H     230 HOH   0.0000 
690 H2      -7.4025     6.1291    10.7794 H     230 HOH   0.0000 
691 O        0.1266    16.5899    37.0262 O.3   231 HOH  -0.8340 
692 H1      -0.1122    17.4174    36.6086 H     231 HOH   0.4170 
693 H2      -0.1013    15.9208    36.3807 H     231 HOH   0.4170 
694 O       -3.0332    24.9420    42.1926 O.3   232 HOH  -0.8340 
695 H1      -2.1216    24.8126    42.4543 H     232 HOH   0.4170 
696 H2      -3.4081    25.4829    42.8877 H     232 HOH   0.4170 
697 O       -0.8270    12.8168    38.7524 O.3   233 HOH  -0.8340 
698 H1      -1.5996    13.2115    38.3481 H     233 HOH   0.4170 
699 H2      -0.2248    13.5490    38.8849 H     233 HOH   0.4170 
700 O      -17.3620    27.0241    18.3757 O.3   234 HOH   0.0000 
701 H1     -16.4020    27.0241    18.3757 H     234 HOH   0.0000 
702 H2     -17.6522    27.6711    19.0227 H     234 HOH   0.0000 
703 O        5.2226    18.2814    35.3045 O.3   235 HOH  -0.8340 
704 H1       5.4704    19.1900    35.1330 H     235 HOH   0.4170 
705 H2       4.4615    18.1303    34.7441 H     235 HOH   0.4170 
706 O      -22.8581    20.8818    36.9780 O.3   236 HOH   0.0000 
707 H1     -21.8981    20.8818    36.9780 H     236 HOH   0.0000 
708 H2     -23.1484    21.5289    37.6251 H     236 HOH   0.0000 
709 O      -28.9249     9.2852    31.8864 O.3   237 HOH   0.0000 
710 H1     -27.9649     9.2852    31.8864 H     237 HOH   0.0000 
711 H2     -29.2152     9.9323    32.5334 H     237 HOH   0.0000 
712 O      -21.5463    22.5549    35.0332 O.3   238 HOH   0.0000 
713 H1     -20.5863    22.5549    35.0332 H     238 HOH   0.0000 
714 H2     -21.8365    23.2019    35.6803 H     238 HOH   0.0000 
715 O        4.2842     5.4534    23.2344 O.3   239 HOH   0.0000 
716 H1       5.2442     5.4534    23.2344 H     239 HOH   0.0000 
717 H2       3.9939     6.1004    23.8815 H     239 HOH   0.0000 
718 O       -2.6065    11.8974    28.3633 O.3   240 HOH   0.0000 
719 H1      -1.6465    11.8974    28.3633 H     240 HOH   0.0000 
720 H2      -2.8968    12.5444    29.0103 H     240 HOH   0.0000 
721 O      -28.1611    12.9408    30.7623 O.3   241 HOH   0.0000 
722 H1     -27.2011    12.9408    30.7623 H     241 HOH   0.0000 
723 H2     -28.4514    13.5879    31.4094 H     241 HOH   0.0000 
724 O        2.9949    22.9021    12.4586 O.3   242 HOH  -0.8340 
725 H1       2.7666    22.5082    11.6166 H     242 HOH   0.4170 
726 H2       2.1882    22.8557    12.9718 H     242 HOH   0.4170 
727 O       16.0647    19.1194    47.9646 O.3   243 HOH   0.0000 
728 H1      17.0247    19.1194    47.9646 H     243 HOH   0.0000 
729 H2      15.7744    19.7665    48.6117 H     243 HOH   0.0000 
730 O      -19.6836    26.9099    19.7035 O.3   244 HOH   0.0000 
731 H1     -18.7236    26.9099    19.7035 H     244 HOH   0.0000 
732 H2     -19.9739    27.5569    20.3505 H     244 HOH   0.0000 
733 O       -4.9668    -1.3048    31.6074 O.3   245 HOH   0.0000 
734 H1      -4.0068    -1.3048    31.6074 H     245 HOH   0.0000 
735 H2      -5.2571    -0.6577    32.2545 H     245 HOH   0.0000 
736 O      -24.9636    19.6124    35.6968 O.3   246 HOH   0.0000 
737 H1     -24.0036    19.6124    35.6968 H     246 HOH   0.0000 
738 H2     -25.2538    20.2594    36.3438 H     246 HOH   0.0000 
739 O        7.5069    27.8096    22.4788 O.3   247 HOH   0.0000 
740 H1       8.4669    27.8096    22.4788 H     247 HOH   0.0000 
741 H2       7.2167    28.4566    23.1259 H     247 HOH   0.0000 
742 O       14.3465    36.9635    49.0052 O.3   248 HOH   0.0000 
743 H1      15.3065    36.9635    49.0052 H     248 HOH   0.0000 
744 H2      14.0562    37.6105    49.6522 H     248 HOH   0.0000 
745 O       11.4589    19.1080    26.6519 O.3   249 HOH   0.0000 
746 H1      12.4189    19.1080    26.6519 H     249 HOH   0.0000 
747 H2      11.1687    19.7550    27.2990 H     249 HOH   0.0000 
748 O        0.9063     9.8222    41.6658 O.3   250 HOH  -0.8340 
749 H1       1.1423     9.8320    40.7382 H     250 HOH   0.4170 
750 H2       0.9722    10.7370    41.9399 H     250 HOH   0.4170 
751 O      -20.6003    18.5772    47.9454 O.3   251 HOH   0.0000 
752 H1     -19.6403    18.5772    47.9454 H     251 HOH   0.0000 
753 H2     -20.8906    19.2243    48.5925 H     251 HOH   0.0000 
754 O      -10.4004    29.8884    20.1028 O.3   252 HOH   0.0000 
755 H1      -9.4404    29.8884    20.1028 H     252 HOH   0.0000 
756 H2     -10.6907    30.5355    20.7498 H     252 HOH   0.0000 
757 O        3.7595    26.2258     7.9494 O.3   253 HOH   0.0000 
758 H1       4.7195    26.2258     7.9494 H     253 HOH   0.0000 
759 H2       3.4692    26.8728     8.5965 H     253 HOH   0.0000 
760 O       -0.0417     3.7522    19.5613 O.3   254 HOH   0.0000 
761 H1       0.9183     3.7522    19.5613 H     254 HOH   0.0000 
762 H2      -0.3319     4.3993    20.2083 H     254 HOH   0.0000 
763 O       -7.9411    29.6601    18.9403 O.3   255 HOH   0.0000 
764 H1      -6.9811    29.6601    18.9403 H     255 HOH   0.0000 
765 H2      -8.2314    30.3071    19.5873 H     255 HOH   0.0000 
766 O       12.9209    21.3536    25.6186 O.3   256 HOH   0.0000 
767 H1      13.8809    21.3536    25.6186 H     256 HOH   0.0000 
768 H2      12.6306    22.0006    26.2656 H     256 HOH   0.0000 
769 O       -7.6529     9.6114     8.9479 O.3   257 HOH   0.0000 
770 H1      -6.6929     9.6114     8.9479 H     257 HOH   0.0000 
771 H2      -7.9432    10.2585     9.5950 H     257 HOH   0.0000 
772 O       11.8885    27.9445    31.5203 O.3   258 HOH   0.0000 
773 H1      12.8485    27.9445    31.5203 H     258 HOH   0.0000 
774 H2      11.5982    28.5916    32.1674 H     258 HOH   0.0000 
775 O       16.4027    13.5721    36.9796 O.3   259 HOH   0.0000 
776 H1      17.3627    13.5721    36.9796 H     259 HOH   0.0000 
777 H2      16.1124    14.2191    37.6266 H     259 HOH   0.0000 
778 O      -22.6184    22.7739    39.0992 O.3   260 HOH   0.0000 
779 H1     -21.6584    22.7739    39.0992 H     260 HOH   0.0000 
780 H2     -22.9087    23.4210    39.7462 H     260 HOH   0.0000 
781 O      -21.0164    24.6025    38.0271 O.3   261 HOH   0.0000 
782 H1     -20.0564    24.6025    38.0271 H     261 HOH   0.0000 
783 H2     -21.3067    25.2496    38.6742 H     261 HOH   0.0000 
784 O       -0.9053     2.2224    25.6552 O.3   262 HOH   0.0000 
785 H1       0.0547     2.2224    25.6552 H     262 HOH   0.0000 
786 H2      -1.1956     2.8695    26.3023 H     262 HOH   0.0000 
787 O        2.0673     5.7180    19.0060 O.3   263 HOH   0.0000 
788 H1       3.0273     5.7180    19.0060 H     263 HOH   0.0000 
789 H2       1.7770     6.3650    19.6531 H     263 HOH   0.0000 
790 O      -16.4403    29.7274    18.7617 O.3   264 HOH   0.0000 
791 H1     -15.4803    29.7274    18.7617 H     264 HOH   0.0000 
792 H2     -16.7306    30.3745    19.4088 H     264 HOH   0.0000 
793 O       -3.0231    -2.3840    29.2332 O.3   265 HOH   0.0000 
794 H1      -2.0631    -2.3840    29.2332 H     265 HOH   0.0000 
795 H2      -3.3134    -1.7369    29.8803 H     265 HOH   0.0000 
796 O      -16.1575    31.2855    22.0390 O.3   266 HOH   0.0000 
797 H1     -15.1975    31.2855    22.0390 H     266 HOH   0.0000 
798 H2     -16.4478    31.9325    22.6861 H     266 HOH   0.0000 
799 O       -4.2460    15.0776    10.4427 O.3   267 HOH   0.0000 
800 H1      -3.2860    15.0776    10.4427 H     267 HOH   0.0000 
801 H2      -4.5363    15.7247    11.0897 H     267 HOH   0.0000 
802 O      -18.0677    26.0348    45.2177 O.3   268 HOH   0.0000 
803 H1     -17.1077    26.0348    45.2177 H     268 HOH   0.0000 
804 H2     -18.3580    26.6819    45.8647 H     268 HOH   0.0000 
805 O      -27.1592    14.1555    24.1689 O.3   269 HOH   0.0000 
806 H1     -26.1992    14.1555    24.1689 H     269 HOH   0.0000 
807 H2     -27.4494    14.8025    24.8160 H     269 HOH   0.0000 
808 O       -4.6647    17.7934    12.4320 O.3   270 HOH  -0.8340 
809 H1      -4.5048    17.6768    13.3685 H     270 HOH   0.4170 
810 H2      -5.6110    17.6875    12.3350 H     270 HOH   0.4170 
811 O        3.0045    16.7777    36.5463 O.3   271 HOH  -0.8340 
812 H1       2.7698    17.7048    36.5061 H     271 HOH   0.4170 
813 H2       2.6636    16.4083    35.7317 H     271 HOH   0.4170 
814 O       20.9596    17.7973    44.1442 O.3   272 HOH   0.0000 
815 H1      21.9196    17.7973    44.1442 H     272 HOH   0.0000 
816 H2      20.6693    18.4444    44.7912 H     272 HOH   0.0000 
817 O      -18.3908    30.1378    23.0720 O.3   273 HOH   0.0000 
818 H1     -17.4308    30.1378    23.0720 H     273 HOH   0.0000 
819 H2     -18.6811    30.7848    23.7191 H     273 HOH   0.0000 
820 O       -2.7464    10.0302    39.6811 O.3   274 HOH  -0.8340 
821 H1      -2.1887    10.8067    39.6341 H     274 HOH   0.4170 
822 H2      -2.5604     9.5518    38.8732 H     274 HOH   0.4170 
823 O       14.4292    17.2448    48.6102 O.3   275 HOH   0.0000 
824 H1      15.3892    17.2448    48.6102 H     275 HOH   0.0000 
825 H2      14.1389    17.8918    49.2572 H     275 HOH   0.0000 
826 O        2.2156    13.6936     9.0757 O.3   276 HOH   0.0000 
827 H1       3.1756    13.6936     9.0757 H     276 HOH   0.0000 
828 H2       1.9253    14.3406     9.7227 H     276 HOH   0.0000 
829 O       -7.1576    10.9473    46.7496 O.3   277 HOH   0.0000 
830 H1      -6.1976    10.9473    46.7496 H     277 HOH   0.0000 
831 H2      -7.4478    11.5944    47.3967 H     277 HOH   0.0000 
832 O       10.3570    35.2150    46.3863 O.3   278 HOH   0.0000 
833 H1      11.3170    35.2150    46.3863 H     278 HOH   0.0000 
834 H2      10.0667    35.8620    47.0334 H     278 HOH   0.0000 
835 O      -13.7431    28.7493    18.6963 O.3   279 HOH   0.0000 
836 H1     -12.7831    28.7493    18.6963 H     279 HOH   0.0000 
837 H2     -14.0334    29.3963    19.3433 H     279 HOH   0.0000 
838 O      -24.1885    26.0481    37.1365 O.3   280 HOH   0.0000 
839 H1     -23.2285    26.0481    37.1365 H     280 HOH   0.0000 
840 H2     -24.4788    26.6951    37.7835 H     280 HOH   0.0000 
841 O      -26.1199    15.1358    32.2792 O.3   281 HOH   0.0000 
842 H1     -25.1599    15.1358    32.2792 H     281 HOH   0.0000 
843 H2     -26.4102    15.7828    32.9262 H     281 HOH   0.0000 
844 O        4.3720    32.2773    36.6349 O.3   282 HOH   0.0000 
845 H1       5.3320    32.2773    36.6349 H     282 HOH   0.0000 
846 H2       4.0817    32.9243    37.2819 H     282 HOH   0.0000 
847 O       19.8938    28.8067    46.6021 O.3   283 HOH   0.0000 
848 H1      20.8538    28.8067    46.6021 H     283 HOH   0.0000 
849 H2      19.6035    29.4538    47.2492 H     283 HOH   0.0000 
850 O      -26.6650    16.5722    42.8831 O.3   284 HOH   0.0000 
851 H1     -25.7050    16.5722    42.8831 H     284 HOH   0.0000 
852 H2     -26.9552    17.2192    43.5301 H     284 HOH   0.0000 
853 O       12.3520    17.8002    52.8352 O.3   285 HOH   0.0000 
854 H1      13.3120    17.8002    52.8352 H     285 HOH   0.0000 
855 H2      12.0617    18.4473    53.4822 H     285 HOH   0.0000 
856 O        8.7137    36.0274    48.8275 O.3   286 HOH   0.0000 
857 H1       9.6737    36.0274    48.8275 H     286 HOH   0.0000 
858 H2       8.4234    36.6745    49.4745 H     286 HOH   0.0000 
859 O       13.4614     9.9481    37.4456 O.3   287 HOH   0.0000 
860 H1      14.4214     9.9481    37.4456 H     287 HOH   0.0000 
861 H2      13.1711    10.5951    38.0927 H     287 HOH   0.0000 
862 O       11.1395    23.0729    24.2160 O.3   288 HOH   0.0000 
863 H1      12.0995    23.0729    24.2160 H     288 HOH   0.0000 
864 H2      10.8493    23.7200    24.8631 H     288 HOH   0.0000 
865 O        2.4428    33.0562    40.2879 O.3   289 HOH   0.0000 
866 H1       3.4028    33.0562    40.2879 H     289 HOH   0.0000 
867 H2       2.1525    33.7032    40.9349 H     289 HOH   0.0000 
868 O        0.8481    33.0985    43.2071 O.3   290 HOH   0.0000 
869 H1       1.8081    33.0985    43.2071 H     290 HOH   0.0000 
870 H2       0.5578    33.7455    43.8541 H     290 HOH   0.0000 
871 O       17.1337    26.7061    35.8555 O.3   291 HOH   0.0000 
872 H1      18.0937    26.7061    35.8555 H     291 HOH   0.0000 
873 H2      16.8435    27.3532    36.5025 H     291 HOH   0.0000 
874 O      -21.4384     9.5168    38.2193 O.3   292 HOH   0.0000 
875 H1     -20.4784     9.5168    38.2193 H     292 HOH   0.0000 
876 H2     -21.7287    10.1638    38.8663 H     292 HOH   0.0000 
877 O      -27.6708    13.1018    36.4070 O.3   293 HOH   0.0000 
878 H1     -26.7108    13.1018    36.4070 H     293 HOH   0.0000 
879 H2     -27.9611    13.7488    37.0541 H     293 HOH   0.0000 
880 O      -26.8595    15.0451    34.9008 O.3   294 HOH   0.0000 
881 H1     -25.8995    15.0451    34.9008 H     294 HOH   0.0000 
882 H2     -27.1497    15.6922    35.5478 H     294 HOH   0.0000 
883 O      -22.0380    21.0830    41.5730 O.3   295 HOH   0.0000 
884 H1     -21.0780    21.0830    41.5730 H     295 HOH   0.0000 
885 H2     -22.3283    21.7301    42.2200 H     295 HOH   0.0000 
886 O      -24.9714    24.0743    38.8641 O.3   296 HOH   0.0000 
887 H1     -24.0114    24.0743    38.8641 H     296 HOH   0.0000 
888 H2     -25.2616    24.7213    39.5111 H     296 HOH   0.0000 
889 O       -2.6662    14.8885     8.0398 O.3   297 HOH  -0.8340 
890 H1      -2.0099    14.6634     7.3804 H     297 HOH   0.4170 
891 H2      -3.3222    14.1947     7.9721 H     297 HOH   0.4170 
892 O        3.6784     6.3973    20.9047 O.3   298 HOH   0.0000 
893 H1       4.6384     6.3973    20.9047 H     298 HOH   0.0000 
894 H2       3.3881     7.0443    21.5517 H     298 HOH   0.0000 
895 O        1.2057     1.8760    24.1369 O.3   299 HOH   0.0000 
896 H1       2.1657     1.8760    24.1369 H     299 HOH   0.0000 
897 H2       0.9154     2.5231    24.7839 H     299 HOH   0.0000 
898 O       -4.4096     6.7130     9.2120 O.3   300 HOH   0.0000 
899 H1      -3.4496     6.7130     9.2120 H     300 HOH   0.0000 
900 H2      -4.6999     7.3600     9.8591 H     300 HOH   0.0000 
901 O       -1.9990     0.1170    32.7676 O.3   301 HOH   0.0000 
902 H1      -1.0390     0.1170    32.7676 H     301 HOH   0.0000 
903 H2      -2.2893     0.7641    33.4147 H     301 HOH   0.0000 
904 O      -10.5152    -0.9370     9.8800 O.3   302 HOH   0.0000 
905 H1      -9.5552    -0.9370     9.8800 H     302 HOH   0.0000 
906 H2     -10.8055    -0.2900    10.5271 H     302 HOH   0.0000 
907 O      -25.3468    19.8442    32.9355 O.3   303 HOH   0.0000 
908 H1     -24.3868    19.8442    32.9355 H     303 HOH   0.0000 
909 H2     -25.6371    20.4912    33.5825 H     303 HOH   0.0000 
910 O        6.3453    14.8091    55.4554 O.3   304 HOH   0.0000 
911 H1       7.3053    14.8091    55.4554 H     304 HOH   0.0000 
912 H2       6.0550    15.4562    56.1024 H     304 HOH   0.0000 
913 O        9.1335    10.0678    51.7249 O.3   305 HOH   0.0000 
914 H1      10.0935    10.0678    51.7249 H     305 HOH   0.0000 
915 H2       8.8432    10.7149    52.3719 H     305 HOH   0.0000 
916 O      -13.8598    23.0266    12.9368 O.3   306 HOH   0.0000 
917 H1     -12.8998    23.0266    12.9368 H     306 HOH   0.0000 
918 H2     -14.1501    23.6736    13.5839 H     306 HOH   0.0000 
919 O       17.7276    13.9230    39.9695 O.3   307 HOH   0.0000 
920 H1      18.6876    13.9230    39.9695 H     307 HOH   0.0000 
921 H2      17.4373    14.5701    40.6165 H     307 HOH   0.0000 
922 O       10.0896    27.5153    23.2945 O.3   308 HOH   0.0000 
923 H1      11.0496    27.5153    23.2945 H     308 HOH   0.0000 
924 H2       9.7993    28.1623    23.9415 H     308 HOH   0.0000 
925 O      -22.7179    16.7317    46.2580 O.3   309 HOH   0.0000 
926 H1     -21.7579    16.7317    46.2580 H     309 HOH   0.0000 
927 H2     -23.0082    17.3787    46.9051 H     309 HOH   0.0000 
928 O       13.8919    12.9574    48.8188 O.3   310 HOH   0.0000 
929 H1      14.8519    12.9574    48.8188 H     310 HOH   0.0000 
930 H2      13.6017    13.6044    49.4658 H     310 HOH   0.0000 
931 O       21.1722    18.4545    33.4684 O.3   311 HOH   0.0000 
932 H1      22.1322    18.4545    33.4684 H     311 HOH   0.0000 
933 H2      20.8819    19.1016    34.1155 H     311 HOH   0.0000 
934 O        6.8902    12.4361    39.4056 O.3   312 HOH  -0.8340 
935 H1       6.6620    12.0422    38.5636 H     312 HOH   0.4170 
936 H2       6.0836    12.3897    39.9189 H     312 HOH   0.4170 
937 O       11.2381    31.7568    39.3957 O.3   313 HOH   0.0000 
938 H1      12.1981    31.7568    39.3957 H     313 HOH   0.0000 
939 H2      10.9478    32.4039    40.0427 H     313 HOH   0.0000 
940 O        9.2790    35.6985    43.6089 O.3   314 HOH   0.0000 
941 H1      10.2390    35.6985    43.6089 H     314 HOH   0.0000 
942 H2       8.9888    36.3455    44.2559 H     314 HOH   0.0000 
943 O      -20.5860    20.6009    18.3335 O.3   315 HOH   0.0000 
944 H1     -19.6260    20.6009    18.3335 H     315 HOH   0.0000 
945 H2     -20.8763    21.2479    18.9805 H     315 HOH   0.0000 
946 O        7.7394    11.8470    44.3832 O.3   316 HOH   0.0000 
947 H1       8.6994    11.8470    44.3832 H     316 HOH   0.0000 
948 H2       7.4491    12.4941    45.0302 H     316 HOH   0.0000 
949 O       19.0250    19.9684    30.9079 O.3   317 HOH   0.0000 
950 H1      19.9850    19.9684    30.9079 H     317 HOH   0.0000 
951 H2      18.7347    20.6154    31.5550 H     317 HOH   0.0000 
952 O        8.4573    31.4768    24.6129 O.3   318 HOH   0.0000 
953 H1       9.4173    31.4768    24.6129 H     318 HOH   0.0000 
954 H2       8.1671    32.1239    25.2599 H     318 HOH   0.0000 
955 O      -25.2230    11.2454    41.2595 O.3   319 HOH   0.0000 
956 H1     -24.2630    11.2454    41.2595 H     319 HOH   0.0000 
957 H2     -25.5132    11.8924    41.9066 H     319 HOH   0.0000 
958 O      -26.2271    17.4967    30.9380 O.3   320 HOH   0.0000 
959 H1     -25.2671    17.4967    30.9380 H     320 HOH   0.0000 
960 H2     -26.5174    18.1438    31.5851 H     320 HOH   0.0000 
961 O        5.1537    11.5524    41.5598 O.3   321 HOH  -0.8340 
962 H1       5.0240    11.5607    42.5081 H     321 HOH   0.4170 
963 H2       6.0078    11.1378    41.4380 H     321 HOH   0.4170 
964 O       -2.1163     5.3085     9.1918 O.3   322 HOH   0.0000 
965 H1      -1.1563     5.3085     9.1918 H     322 HOH   0.0000 
966 H2      -2.4066     5.9556     9.8388 H     322 HOH   0.0000 
967 O        9.1503    22.5912    19.8501 O.3   323 HOH  -0.8340 
968 H1       9.0602    21.6457    19.7312 H     323 HOH   0.4170 
969 H2      10.0782    22.7656    19.6927 H     323 HOH   0.4170 
@<TRIPOS>BOND
  1   1   2  1   
  2   1   3  1   
  3   4   5  1   
  4   4   6  1   
  5   7   8  1   
  6   7   9  1   
  7  10  11  1   
  8  10  12  1   
  9  13  14  1   
 10  13  15  1   
 11  16  17  1   
 12  16  18  1   
 13  19  20  1   
 14  19  21  1   
 15  22  23  1   
 16  22  24  1   
 17  25  26  1   
 18  25  27  1   
 19  28  29  1   
 20  28  30  1   
 21  31  32  1   
 22  31  33  1   
 23  34  35  1   
 24  34  36  1   
 25  37  38  1   
 26  37  39  1   
 27  40  41  1   
 28  40  42  1   
 29  43  44  1   
 30  43  45  1   
 31  46  47  1   
 32  46  48  1   
 33  49  50  1   
 34  49  51  1   
 35  52  53  1   
 36  52  54  1   
 37  55  56  1   
 38  55  57  1   
 39  58  59  1   
 40  58  60  1   
 41  61  62  1   
 42  61  63  1   
 43  64  65  1   
 44  64  66  1   
 45  67  68  1   
 46  67  69  1   
 47  70  71  1   
 48  70  72  1   
 49  73  74  1   
 50  73  75  1   
 51  76  77  1   
 52  76  78  1   
 53  79  80  1   
 54  79  81  1   
 55  82  83  1   
 56  82  84  1   
 57  85  86  1   
 58  85  87  1   
 59  88  89  1   
 60  88  90  1   
 61  91  92  1   
 62  91  93  1   
 63  94  95  1   
 64  94  96  1   
 65  97  98  1   
 66  97  99  1   
 67 100 101  1   
 68 100 102  1   
 69 103 104  1   
 70 103 105  1   
 71 106 107  1   
 72 106 108  1   
 73 109 110  1   
 74 109 111  1   
 75 112 113  1   
 76 112 114  1   
 77 115 116  1   
 78 115 117  1   
 79 118 119  1   
 80 118 120  1   
 81 121 122  1   
 82 121 123  1   
 83 124 125  1   
 84 124 126  1   
 85 127 128  1   
 86 127 129  1   
 87 130 131  1   
 88 130 132  1   
 89 133 134  1   
 90 133 135  1   
 91 136 137  1   
 92 136 138  1   
 93 139 140  1   
 94 139 141  1   
 95 142 143  1   
 96 142 144  1   
 97 145 146  1   
 98 145 147  1   
 99 148 149  1   
100 148 150  1   
101 151 152  1   
102 151 153  1   
103 154 155  1   
104 154 156  1   
105 157 158  1   
106 157 159  1   
107 160 161  1   
108 160 162  1   
109 163 164  1   
110 163 165  1   
111 166 167  1   
112 166 168  1   
113 169 170  1   
114 169 171  1   
115 172 173  1   
116 172 174  1   
117 175 176  1   
118 175 177  1   
119 178 179  1   
120 178 180  1   
121 181 182  1   
122 181 183  1   
123 184 185  1   
124 184 186  1   
125 187 188  1   
126 187 189  1   
127 190 191  1   
128 190 192  1   
129 193 194  1   
130 193 195  1   
131 196 197  1   
132 196 198  1   
133 199 200  1   
134 199 201  1   
135 202 203  1   
136 202 204  1   
137 205 206  1   
138 205 207  1   
139 208 209  1   
140 208 210  1   
141 211 212  1   
142 211 213  1   
143 214 215  1   
144 214 216  1   
145 217 218  1   
146 217 219  1   
147 220 221  1   
148 220 222  1   
149 223 224  1   
150 223 225  1   
151 226 227  1   
152 226 228  1   
153 229 230  1   
154 229 231  1   
155 232 233  1   
156 232 234  1   
157 235 236  1   
158 235 237  1   
159 238 239  1   
160 238 240  1   
161 241 242  1   
162 241 243  1   
163 244 245  1   
164 244 246  1   
165 247 248  1   
166 247 249  1   
167 250 251  1   
168 250 252  1   
169 253 254  1   
170 253 255  1   
171 256 257  1   
172 256 258  1   
173 259 260  1   
174 259 261  1   
175 262 263  1   
176 262 264  1   
177 265 266  1   
178 265 267  1   
179 268 269  1   
180 268 270  1   
181 271 272  1   
182 271 273  1   
183 274 275  1   
184 274 276  1   
185 277 278  1   
186 277 279  1   
187 280 281  1   
188 280 282  1   
189 283 284  1   
190 283 285  1   
191 286 287  1   
192 286 288  1   
193 289 290  1   
194 289 291  1   
195 292 293  1   
196 292 294  1   
197 295 296  1   
198 295 297  1   
199 298 299  1   
200 298 300  1   
201 301 302  1   
202 301 303  1   
203 304 305  1   
204 304 306  1   
205 307 308  1   
206 307 309  1   
207 310 311  1   
208 310 312  1   
209 313 314  1   
210 313 315  1   
211 316 317  1   
212 316 318  1   
213 319 320  1   
214 319 321  1   
215 322 323  1   
216 322 324  1   
217 325 326  1   
218 325 327  1   
219 328 329  1   
220 328 330  1   
221 331 332  1   
222 331 333  1   
223 334 335  1   
224 334 336  1   
225 337 338  1   
226 337 339  1   
227 340 341  1   
228 340 342  1   
229 343 344  1   
230 343 345  1   
231 346 347  1   
232 346 348  1   
233 349 350  1   
234 349 351  1   
235 352 353  1   
236 352 354  1   
237 355 356  1   
238 355 357  1   
239 358 359  1   
240 358 360  1   
241 361 362  1   
242 361 363  1   
243 364 365  1   
244 364 366  1   
245 367 368  1   
246 367 369  1   
247 370 371  1   
248 370 372  1   
249 373 374  1   
250 373 375  1   
251 376 377  1   
252 376 378  1   
253 379 380  1   
254 379 381  1   
255 382 383  1   
256 382 384  1   
257 385 386  1   
258 385 387  1   
259 388 389  1   
260 388 390  1   
261 391 392  1   
262 391 393  1   
263 394 395  1   
264 394 396  1   
265 397 398  1   
266 397 399  1   
267 400 401  1   
268 400 402  1   
269 403 404  1   
270 403 405  1   
271 406 407  1   
272 406 408  1   
273 409 410  1   
274 409 411  1   
275 412 413  1   
276 412 414  1   
277 415 416  1   
278 415 417  1   
279 418 419  1   
280 418 420  1   
281 421 422  1   
282 421 423  1   
283 424 425  1   
284 424 426  1   
285 427 428  1   
286 427 429  1   
287 430 431  1   
288 430 432  1   
289 433 434  1   
290 433 435  1   
291 436 437  1   
292 436 438  1   
293 439 440  1   
294 439 441  1   
295 442 443  1   
296 442 444  1   
297 445 446  1   
298 445 447  1   
299 448 449  1   
300 448 450  1   
301 451 452  1   
302 451 453  1   
303 454 455  1   
304 454 456  1   
305 457 458  1   
306 457 459  1   
307 460 461  1   
308 460 462  1   
309 463 464  1   
310 463 465  1   
311 466 467  1   
312 466 468  1   
313 469 470  1   
314 469 471  1   
315 472 473  1   
316 472 474  1   
317 475 476  1   
318 475 477  1   
319 478 479  1   
320 478 480  1   
321 481 482  1   
322 481 483  1   
323 484 485  1   
324 484 486  1   
325 487 488  1   
326 487 489  1   
327 490 491  1   
328 490 492  1   
329 493 494  1   
330 493 495  1   
331 496 497  1   
332 496 498  1   
333 499 500  1   
334 499 501  1   
335 502 503  1   
336 502 504  1   
337 505 506  1   
338 505 507  1   
339 508 509  1   
340 508 510  1   
341 511 512  1   
342 511 513  1   
343 514 515  1   
344 514 516  1   
345 517 518  1   
346 517 519  1   
347 520 521  1   
348 520 522  1   
349 523 524  1   
350 523 525  1   
351 526 527  1   
352 526 528  1   
353 529 530  1   
354 529 531  1   
355 532 533  1   
356 532 534  1   
357 535 536  1   
358 535 537  1   
359 538 539  1   
360 538 540  1   
361 541 542  1   
362 541 543  1   
363 544 545  1   
364 544 546  1   
365 547 548  1   
366 547 549  1   
367 550 551  1   
368 550 552  1   
369 553 554  1   
370 553 555  1   
371 556 557  1   
372 556 558  1   
373 559 560  1   
374 559 561  1   
375 562 563  1   
376 562 564  1   
377 565 566  1   
378 565 567  1   
379 568 569  1   
380 568 570  1   
381 571 572  1   
382 571 573  1   
383 574 575  1   
384 574 576  1   
385 577 578  1   
386 577 579  1   
387 580 581  1   
388 580 582  1   
389 583 584  1   
390 583 585  1   
391 586 587  1   
392 586 588  1   
393 589 590  1   
394 589 591  1   
395 592 593  1   
396 592 594  1   
397 595 596  1   
398 595 597  1   
399 598 599  1   
400 598 600  1   
401 601 602  1   
402 601 603  1   
403 604 605  1   
404 604 606  1   
405 607 608  1   
406 607 609  1   
407 610 611  1   
408 610 612  1   
409 613 614  1   
410 613 615  1   
411 616 617  1   
412 616 618  1   
413 619 620  1   
414 619 621  1   
415 622 623  1   
416 622 624  1   
417 625 626  1   
418 625 627  1   
419 628 629  1   
420 628 630  1   
421 631 632  1   
422 631 633  1   
423 634 635  1   
424 634 636  1   
425 637 638  1   
426 637 639  1   
427 640 641  1   
428 640 642  1   
429 643 644  1   
430 643 645  1   
431 646 647  1   
432 646 648  1   
433 649 650  1   
434 649 651  1   
435 652 653  1   
436 652 654  1   
437 655 656  1   
438 655 657  1   
439 658 659  1   
440 658 660  1   
441 661 662  1   
442 661 663  1   
443 664 665  1   
444 664 666  1   
445 667 668  1   
446 667 669  1   
447 670 671  1   
448 670 672  1   
449 673 674  1   
450 673 675  1   
451 676 677  1   
452 676 678  1   
453 679 680  1   
454 679 681  1   
455 682 683  1   
456 682 684  1   
457 685 686  1   
458 685 687  1   
459 688 689  1   
460 688 690  1   
461 691 692  1   
462 691 693  1   
463 694 695  1   
464 694 696  1   
465 697 698  1   
466 697 699  1   
467 700 701  1   
468 700 702  1   
469 703 704  1   
470 703 705  1   
471 706 707  1   
472 706 708  1   
473 709 710  1   
474 709 711  1   
475 712 713  1   
476 712 714  1   
477 715 716  1   
478 715 717  1   
479 718 719  1   
480 718 720  1   
481 721 722  1   
482 721 723  1   
483 724 725  1   
484 724 726  1   
485 727 728  1   
486 727 729  1   
487 730 731  1   
488 730 732  1   
489 733 734  1   
490 733 735  1   
491 736 737  1   
492 736 738  1   
493 739 740  1   
494 739 741  1   
495 742 743  1   
496 742 744  1   
497 745 746  1   
498 745 747  1   
499 748 749  1   
500 748 750  1   
501 751 752  1   
502 751 753  1   
503 754 755  1   
504 754 756  1   
505 757 758  1   
506 757 759  1   
507 760 761  1   
508 760 762  1   
509 763 764  1   
510 763 765  1   
511 766 767  1   
512 766 768  1   
513 769 770  1   
514 769 771  1   
515 772 773  1   
516 772 774  1   
517 775 776  1   
518 775 777  1   
519 778 779  1   
520 778 780  1   
521 781 782  1   
522 781 783  1   
523 784 785  1   
524 784 786  1   
525 787 788  1   
526 787 789  1   
527 790 791  1   
528 790 792  1   
529 793 794  1   
530 793 795  1   
531 796 797  1   
532 796 798  1   
533 799 800  1   
534 799 801  1   
535 802 803  1   
536 802 804  1   
537 805 806  1   
538 805 807  1   
539 808 809  1   
540 808 810  1   
541 811 812  1   
542 811 813  1   
543 814 815  1   
544 814 816  1   
545 817 818  1   
546 817 819  1   
547 820 821  1   
548 820 822  1   
549 823 824  1   
550 823 825  1   
551 826 827  1   
552 826 828  1   
553 829 830  1   
554 829 831  1   
555 832 833  1   
556 832 834  1   
557 835 836  1   
558 835 837  1   
559 838 839  1   
560 838 840  1   
561 841 842  1   
562 841 843  1   
563 844 845  1   
564 844 846  1   
565 847 848  1   
566 847 849  1   
567 850 851  1   
568 850 852  1   
569 853 854  1   
570 853 855  1   
571 856 857  1   
572 856 858  1   
573 859 860  1   
574 859 861  1   
575 862 863  1   
576 862 864  1   
577 865 866  1   
578 865 867  1   
579 868 869  1   
580 868 870  1   
581 871 872  1   
582 871 873  1   
583 874 875  1   
584 874 876  1   
585 877 878  1   
586 877 879  1   
587 880 881  1   
588 880 882  1   
589 883 884  1   
590 883 885  1   
591 886 887  1   
592 886 888  1   
593 889 890  1   
594 889 891  1   
595 892 893  1   
596 892 894  1   
597 895 896  1   
598 895 897  1   
599 898 899  1   
600 898 900  1   
601 901 902  1   
602 901 903  1   
603 904 905  1   
604 904 906  1   
605 907 908  1   
606 907 909  1   
607 910 911  1   
608 910 912  1   
609 913 914  1   
610 913 915  1   
611 916 917  1   
612 916 918  1   
613 919 920  1   
614 919 921  1   
615 922 923  1   
616 922 924  1   
617 925 926  1   
618 925 927  1   
619 928 929  1   
620 928 930  1   
621 931 932  1   
622 931 933  1   
623 934 935  1   
624 934 936  1   
625 937 938  1   
626 937 939  1   
627 940 941  1   
628 940 942  1   
629 943 944  1   
630 943 945  1   
631 946 947  1   
632 946 948  1   
633 949 950  1   
634 949 951  1   
635 952 953  1   
636 952 954  1   
637 955 956  1   
638 955 957  1   
639 958 959  1   
640 958 960  1   
641 961 962  1   
642 961 963  1   
643 964 965  1   
644 964 966  1   
645 967 968  1   
646 967 969  1   
@<TRIPOS>SUBSTRUCTURE
  1 HOH   1 GROUP 4 A **** 0
  2 HOH   4 GROUP 4 A **** 0
  3 HOH   7 GROUP 4 A **** 0
  4 HOH  10 GROUP 4 A **** 0
  5 HOH  13 GROUP 4 A **** 0
  6 HOH  16 GROUP 4 A **** 0
  7 HOH  19 GROUP 4 A **** 0
  8 HOH  22 GROUP 4 A **** 0
  9 HOH  25 GROUP 4 A **** 0
 10 HOH  28 GROUP 4 A **** 0
 11 HOH  31 GROUP 4 A **** 0
 12 HOH  34 GROUP 4 A **** 0
 13 HOH  37 GROUP 4 A **** 0
 14 HOH  40 GROUP 4 A **** 0
 15 HOH  43 GROUP 4 A **** 0
 16 HOH  46 GROUP 4 A **** 0
 17 HOH  49 GROUP 4 A **** 0
 18 HOH  52 GROUP 4 A **** 0
 19 HOH  55 GROUP 4 A **** 0
 20 HOH  58 GROUP 4 A **** 0
 21 HOH  61 GROUP 4 A **** 0
 22 HOH  64 GROUP 4 A **** 0
 23 HOH  67 GROUP 4 A **** 0
 24 HOH  70 GROUP 4 A **** 0
 25 HOH  73 GROUP 4 A **** 0
 26 HOH  76 GROUP 4 A **** 0
 27 HOH  79 GROUP 4 A **** 0
 28 HOH  82 GROUP 4 A **** 0
 29 HOH  85 GROUP 4 A **** 0
 30 HOH  88 GROUP 4 A **** 0
 31 HOH  91 GROUP 4 A **** 0
 32 HOH  94 GROUP 4 A **** 0
 33 HOH  97 GROUP 4 A **** 0
 34 HOH 100 GROUP 4 A **** 0
 35 HOH 103 GROUP 4 A **** 0
 36 HOH 106 GROUP 4 A **** 0
 37 HOH 109 GROUP 4 A **** 0
 38 HOH 112 GROUP 4 A **** 0
 39 HOH 115 GROUP 4 A **** 0
 40 HOH 118 GROUP 4 A **** 0
 41 HOH 121 GROUP 4 A **** 0
 42 HOH 124 GROUP 4 A **** 0
 43 HOH 127 GROUP 4 A **** 0
 44 HOH 130 GROUP 4 A **** 0
 45 HOH 133 GROUP 4 A **** 0
 46 HOH 136 GROUP 4 A **** 0
 47 HOH 139 GROUP 4 A **** 0
 48 HOH 142 GROUP 4 A **** 0
 49 HOH 145 GROUP 4 A **** 0
 50 HOH 148 GROUP 4 A **** 0
 51 HOH 151 GROUP 4 A **** 0
 52 HOH 154 GROUP 4 A **** 0
 53 HOH 157 GROUP 4 A **** 0
 54 HOH 160 GROUP 4 A **** 0
 55 HOH 163 GROUP 4 A **** 0
 56 HOH 166 GROUP 4 A **** 0
 57 HOH 169 GROUP 4 A **** 0
 58 HOH 172 GROUP 4 A **** 0
 59 HOH 175 GROUP 4 A **** 0
 60 HOH 178 GROUP 4 A **** 0
 61 HOH 181 GROUP 4 A **** 0
 62 HOH 184 GROUP 4 A **** 0
 63 HOH 187 GROUP 4 A **** 0
 64 HOH 190 GROUP 4 A **** 0
 65 HOH 193 GROUP 4 A **** 0
 66 HOH 196 GROUP 4 A **** 0
 67 HOH 199 GROUP 4 A **** 0
 68 HOH 202 GROUP 4 A **** 0
 69 HOH 205 GROUP 4 A **** 0
 70 HOH 208 GROUP 4 A **** 0
 71 HOH 211 GROUP 4 A **** 0
 72 HOH 214 GROUP 4 A **** 0
 73 HOH 217 GROUP 4 A **** 0
 74 HOH 220 GROUP 4 A **** 0
 75 HOH 223 GROUP 4 A **** 0
 76 HOH 226 GROUP 4 A **** 0
 77 HOH 229 GROUP 4 A **** 0
 78 HOH 232 GROUP 4 A **** 0
 79 HOH 235 GROUP 4 A **** 0
 80 HOH 238 GROUP 4 A **** 0
 81 HOH 241 GROUP 4 A **** 0
 82 HOH 244 GROUP 4 A **** 0
 83 HOH 247 GROUP 4 A **** 0
 84 HOH 250 GROUP 4 A **** 0
 85 HOH 253 GROUP 4 A **** 0
 86 HOH 256 GROUP 4 A **** 0
 87 HOH 259 GROUP 4 A **** 0
 88 HOH 262 GROUP 4 A **** 0
 89 HOH 265 GROUP 4 A **** 0
 90 HOH 268 GROUP 4 A **** 0
 91 HOH 271 GROUP 4 A **** 0
 92 HOH 274 GROUP 4 A **** 0
 93 HOH 277 GROUP 4 A **** 0
 94 HOH 280 GROUP 4 A **** 0
 95 HOH 283 GROUP 4 A **** 0
 96 HOH 286 GROUP 4 A **** 0
 97 HOH 289 GROUP 4 A **** 0
 98 HOH 292 GROUP 4 A **** 0
 99 HOH 295 GROUP 4 A **** 0
100 HOH 298 GROUP 4 A **** 0
101 HOH 301 GROUP 4 A **** 0
102 HOH 304 GROUP 4 A **** 0
103 HOH 307 GROUP 4 A **** 0
104 HOH 310 GROUP 4 A **** 0
105 HOH 313 GROUP 4 A **** 0
106 HOH 316 GROUP 4 A **** 0
107 HOH 319 GROUP 4 A **** 0
108 HOH 322 GROUP 4 A **** 0
109 HOH 325 GROUP 4 A **** 0
110 HOH 328 GROUP 4 A **** 0
111 HOH 331 GROUP 4 A **** 0
112 HOH 334 GROUP 4 A **** 0
113 HOH 337 GROUP 4 A **** 0
114 HOH 340 GROUP 4 A **** 0
115 HOH 343 GROUP 4 A **** 0
116 HOH 346 GROUP 4 A **** 0
117 HOH 349 GROUP 4 A **** 0
118 HOH 352 GROUP 4 A **** 0
119 HOH 355 GROUP 4 A **** 0
120 HOH 358 GROUP 4 A **** 0
121 HOH 361 GROUP 4 A **** 0
122 HOH 364 GROUP 4 A **** 0
123 HOH 367 GROUP 4 A **** 0
124 HOH 370 GROUP 4 A **** 0
125 HOH 373 GROUP 4 A **** 0
126 HOH 376 GROUP 4 A **** 0
127 HOH 379 GROUP 4 A **** 0
128 HOH 382 GROUP 4 A **** 0
129 HOH 385 GROUP 4 A **** 0
130 HOH 388 GROUP 4 A **** 0
131 HOH 391 GROUP 4 A **** 0
132 HOH 394 GROUP 4 A **** 0
133 HOH 397 GROUP 4 A **** 0
134 HOH 400 GROUP 4 A **** 0
135 HOH 403 GROUP 4 A **** 0
136 HOH 406 GROUP 4 A **** 0
137 HOH 409 GROUP 4 A **** 0
138 HOH 412 GROUP 4 A **** 0
139 HOH 415 GROUP 4 A **** 0
140 HOH 418 GROUP 4 A **** 0
141 HOH 421 GROUP 4 A **** 0
142 HOH 424 GROUP 4 A **** 0
143 HOH 427 GROUP 4 A **** 0
144 HOH 430 GROUP 4 A **** 0
145 HOH 433 GROUP 4 A **** 0
146 HOH 436 GROUP 4 A **** 0
147 HOH 439 GROUP 4 A **** 0
148 HOH 442 GROUP 4 A **** 0
149 HOH 445 GROUP 4 A **** 0
150 HOH 448 GROUP 4 A **** 0
151 HOH 451 GROUP 4 A **** 0
152 HOH 454 GROUP 4 A **** 0
153 HOH 457 GROUP 4 A **** 0
154 HOH 460 GROUP 4 A **** 0
155 HOH 463 GROUP 4 A **** 0
156 HOH 466 GROUP 4 A **** 0
157 HOH 469 GROUP 4 A **** 0
158 HOH 472 GROUP 4 A **** 0
159 HOH 475 GROUP 4 A **** 0
160 HOH 478 GROUP 4 A **** 0
161 HOH 481 GROUP 4 A **** 0
162 HOH 484 GROUP 4 A **** 0
163 HOH 487 GROUP 4 A **** 0
164 HOH 490 GROUP 4 A **** 0
165 HOH 493 GROUP 4 A **** 0
166 HOH 496 GROUP 4 A **** 0
167 HOH 499 GROUP 4 A **** 0
168 HOH 502 GROUP 4 A **** 0
169 HOH 505 GROUP 4 A **** 0
170 HOH 508 GROUP 4 A **** 0
171 HOH 511 GROUP 4 A **** 0
172 HOH 514 GROUP 4 A **** 0
173 HOH 517 GROUP 4 A **** 0
174 HOH 520 GROUP 4 A **** 0
175 HOH 523 GROUP 4 A **** 0
176 HOH 526 GROUP 4 A **** 0
177 HOH 529 GROUP 4 A **** 0
178 HOH 532 GROUP 4 A **** 0
179 HOH 535 GROUP 4 A **** 0
180 HOH 538 GROUP 4 A **** 0
181 HOH 541 GROUP 4 A **** 0
182 HOH 544 GROUP 4 A **** 0
183 HOH 547 GROUP 4 A **** 0
184 HOH 550 GROUP 4 A **** 0
185 HOH 553 GROUP 4 A **** 0
186 HOH 556 GROUP 4 A **** 0
187 HOH 559 GROUP 4 A **** 0
188 HOH 562 GROUP 4 A **** 0
189 HOH 565 GROUP 4 A **** 0
190 HOH 568 GROUP 4 A **** 0
191 HOH 571 GROUP 4 A **** 0
192 HOH 574 GROUP 4 A **** 0
193 HOH 577 GROUP 4 A **** 0
194 HOH 580 GROUP 4 A **** 0
195 HOH 583 GROUP 4 A **** 0
196 HOH 586 GROUP 4 A **** 0
197 HOH 589 GROUP 4 A **** 0
198 HOH 592 GROUP 4 A **** 0
199 HOH 595 GROUP 4 A **** 0
200 HOH 598 GROUP 4 A **** 0
201 HOH 601 GROUP 4 A **** 0
202 HOH 604 GROUP 4 A **** 0
203 HOH 607 GROUP 4 A **** 0
204 HOH 610 GROUP 4 A **** 0
205 HOH 613 GROUP 4 A **** 0
206 HOH 616 GROUP 4 A **** 0
207 HOH 619 GROUP 4 A **** 0
208 HOH 622 GROUP 4 A **** 0
209 HOH 625 GROUP 4 A **** 0
210 HOH 628 GROUP 4 A **** 0
211 HOH 631 GROUP 4 A **** 0
212 HOH 634 GROUP 4 A **** 0
213 HOH 637 GROUP 4 A **** 0
214 HOH 640 GROUP 4 A **** 0
215 HOH 643 GROUP 4 A **** 0
216 HOH 646 GROUP 4 A **** 0
217 HOH 649 GROUP 4 A **** 0
218 HOH 652 GROUP 4 A **** 0
219 HOH 655 GROUP 4 A **** 0
220 HOH 658 GROUP 4 A **** 0
221 HOH 661 GROUP 4 A **** 0
222 HOH 664 GROUP 4 A **** 0
223 HOH 667 GROUP 4 A **** 0
224 HOH 670 GROUP 4 A **** 0
225 HOH 673 GROUP 4 A **** 0
226 HOH 676 GROUP 4 A **** 0
227 HOH 679 GROUP 4 A **** 0
228 HOH 682 GROUP 4 A **** 0
229 HOH 685 GROUP 4 A **** 0
230 HOH 688 GROUP 4 A **** 0
231 HOH 691 GROUP 4 A **** 0
232 HOH 694 GROUP 4 A **** 0
233 HOH 697 GROUP 4 A **** 0
234 HOH 700 GROUP 4 A **** 0
235 HOH 703 GROUP 4 A **** 0
236 HOH 706 GROUP 4 A **** 0
237 HOH 709 GROUP 4 A **** 0
238 HOH 712 GROUP 4 A **** 0
239 HOH 715 GROUP 4 A **** 0
240 HOH 718 GROUP 4 A **** 0
241 HOH 721 GROUP 4 A **** 0
242 HOH 724 GROUP 4 A **** 0
243 HOH 727 GROUP 4 A **** 0
244 HOH 730 GROUP 4 A **** 0
245 HOH 733 GROUP 4 A **** 0
246 HOH 736 GROUP 4 A **** 0
247 HOH 739 GROUP 4 A **** 0
248 HOH 742 GROUP 4 A **** 0
249 HOH 745 GROUP 4 A **** 0
250 HOH 748 GROUP 4 A **** 0
251 HOH 751 GROUP 4 A **** 0
252 HOH 754 GROUP 4 A **** 0
253 HOH 757 GROUP 4 A **** 0
254 HOH 760 GROUP 4 A **** 0
255 HOH 763 GROUP 4 A **** 0
256 HOH 766 GROUP 4 A **** 0
257 HOH 769 GROUP 4 A **** 0
258 HOH 772 GROUP 4 A **** 0
259 HOH 775 GROUP 4 A **** 0
260 HOH 778 GROUP 4 A **** 0
261 HOH 781 GROUP 4 A **** 0
262 HOH 784 GROUP 4 A **** 0
263 HOH 787 GROUP 4 A **** 0
264 HOH 790 GROUP 4 A **** 0
265 HOH 793 GROUP 4 A **** 0
266 HOH 796 GROUP 4 A **** 0
267 HOH 799 GROUP 4 A **** 0
268 HOH 802 GROUP 4 A **** 0
269 HOH 805 GROUP 4 A **** 0
270 HOH 808 GROUP 4 A **** 0
271 HOH 811 GROUP 4 A **** 0
272 HOH 814 GROUP 4 A **** 0
273 HOH 817 GROUP 4 A **** 0
274 HOH 820 GROUP 4 A **** 0
275 HOH 823 GROUP 4 A **** 0
276 HOH 826 GROUP 4 A **** 0
277 HOH 829 GROUP 4 A **** 0
278 HOH 832 GROUP 4 A **** 0
279 HOH 835 GROUP 4 A **** 0
280 HOH 838 GROUP 4 A **** 0
281 HOH 841 GROUP 4 A **** 0
282 HOH 844 GROUP 4 A **** 0
283 HOH 847 GROUP 4 A **** 0
284 HOH 850 GROUP 4 A **** 0
285 HOH 853 GROUP 4 A **** 0
286 HOH 856 GROUP 4 A **** 0
287 HOH 859 GROUP 4 A **** 0
288 HOH 862 GROUP 4 A **** 0
289 HOH 865 GROUP 4 A **** 0
290 HOH 868 GROUP 4 A **** 0
291 HOH 871 GROUP 4 A **** 0
292 HOH 874 GROUP 4 A **** 0
293 HOH 877 GROUP 4 A **** 0
294 HOH 880 GROUP 4 A **** 0
295 HOH 883 GROUP 4 A **** 0
296 HOH 886 GROUP 4 A **** 0
297 HOH 889 GROUP 4 A **** 0
298 HOH 892 GROUP 4 A **** 0
299 HOH 895 GROUP 4 A **** 0
300 HOH 898 GROUP 4 A **** 0
301 HOH 901 GROUP 4 A **** 0
302 HOH 904 GROUP 4 A **** 0
303 HOH 907 GROUP 4 A **** 0
304 HOH 910 GROUP 4 A **** 0
305 HOH 913 GROUP 4 A **** 0
306 HOH 916 GROUP 4 A **** 0
307 HOH 919 GROUP 4 A **** 0
308 HOH 922 GROUP 4 A **** 0
309 HOH 925 GROUP 4 A **** 0
310 HOH 928 GROUP 4 A **** 0
311 HOH 931 GROUP 4 A **** 0
312 HOH 934 GROUP 4 A **** 0
313 HOH 937 GROUP 4 A **** 0
314 HOH 940 GROUP 4 A **** 0
315 HOH 943 GROUP 4 A **** 0
316 HOH 946 GROUP 4 A **** 0
317 HOH 949 GROUP 4 A **** 0
318 HOH 952 GROUP 4 A **** 0
319 HOH 955 GROUP 4 A **** 0
320 HOH 958 GROUP 4 A **** 0
321 HOH 961 GROUP 4 A **** 0
322 HOH 964 GROUP 4 A **** 0
323 HOH 967 GROUP 4 A **** 0

# MOE 2012.10 (io_trps.svl 2012.10)
