@<TRIPOS>MOLECULE
4jr3.A
59 63 1 0 0 
SMALL
USER_CHARGES


@<TRIPOS>ATOM
  1 C24      0.5905    13.1396    37.8255 C.3   1 KJR  -0.1790 
  2 H241     0.4469    14.1414    37.4208 H     1 KJR   0.0800 
  3 H242    -0.3395    12.5772    37.7417 H     1 KJR   0.0800 
  4 H243     1.3747    12.6304    37.2653 H     1 KJR   0.0800 
  5 C23      0.9970    13.2376    39.2991 C.2   1 KJR   0.5690 
  6 O25      1.2085    12.2114    39.9455 O.2   1 KJR  -0.5700 
  7 N22      1.0835    14.5053    39.7681 N.am  1 KJR  -0.5470 
  8 H22      0.8672    15.2711    39.1461 H     1 KJR   0.3700 
  9 C20      1.4493    14.7809    41.0398 C.ar  1 KJR   0.1170 
 10 C21      0.8463    15.8748    41.6689 C.ar  1 KJR  -0.1500 
 11 H21      0.0951    16.4358    41.1328 H     1 KJR   0.1500 
 12 C19      2.4315    14.0683    41.7421 C.ar  1 KJR  -0.1500 
 13 H19      2.9295    13.2314    41.2752 H     1 KJR   0.1500 
 14 C18      2.7653    14.4413    43.0455 C.ar  1 KJR  -0.1500 
 15 H18      3.5095    13.8755    43.5864 H     1 KJR   0.1500 
 16 C17      2.1515    15.5349    43.6609 C.ar  1 KJR  -0.1500 
 17 H17      2.4254    15.8125    44.6680 H     1 KJR   0.1500 
 18 C16      1.1839    16.2684    42.9729 C.ar  1 KJR   0.0540 
 19 C15      0.5593    17.3313    43.5253 C.2   1 KJR  -0.0540 
 20 C1       0.6289    18.6123    43.0704 C.ar  1 KJR   0.0000 
 21 C14     -0.2568    17.3068    44.5959 C.2   1 KJR   0.0870 
 22 C26     -0.6434    16.2942    45.3986 C.ar  1 KJR   0.0530 
 23 C27     -0.7114    14.9525    44.9924 C.ar  1 KJR  -0.1500 
 24 H27     -0.4354    14.6846    43.9833 H     1 KJR   0.1500 
 25 C28     -1.1325    13.9609    45.8806 C.ar  1 KJR  -0.1500 
 26 H28     -1.1717    12.9317    45.5557 H     1 KJR   0.1500 
 27 C29     -1.5017    14.2891    47.1806 C.ar  1 KJR  -0.1500 
 28 H29     -1.8279    13.5192    47.8642 H     1 KJR   0.1500 
 29 C30     -1.4481    15.6159    47.5942 C.ar  1 KJR  -0.1500 
 30 H30     -1.7346    15.8780    48.6020 H     1 KJR   0.1500 
 31 C31     -1.0250    16.6094    46.7104 C.ar  1 KJR  -0.1500 
 32 H31     -0.9909    17.6367    47.0419 H     1 KJR   0.1500 
 33 O13     -0.6727    18.5310    44.8064 O.3   1 KJR  -0.2800 
 34 C2      -0.1481    19.3413    43.8926 C.ar  1 KJR   0.3970 
 35 N3      -0.3083    20.6673    43.7333 N.ar  1 KJR  -0.5670 
 36 C4       0.3377    21.3288    42.6910 C.ar  1 KJR   0.4700 
 37 H4       0.2187    22.3925    42.5469 H     1 KJR   0.1500 
 38 N5       1.1362    20.5785    41.8469 N.ar  1 KJR  -0.6200 
 39 C6       1.2532    19.2530    42.0430 C.ar  1 KJR   0.4100 
 40 N        2.0584    18.5564    41.2351 N.pl3 1 KJR  -0.8691 
 41 H        2.4168    17.6746    41.5729 H     1 KJR   0.4000 
 42 CA       2.4601    18.9912    39.8779 C.3   1 KJR   0.4326 
 43 HA       1.6035    19.3856    39.3312 H     1 KJR   0.0800 
 44 C        3.0403    17.7626    39.1958 C.3   1 KJR   0.1200 
 45 H1       2.8046    16.8617    39.7622 H     1 KJR   0.0800 
 46 H2       4.1215    17.8549    39.0934 H     1 KJR   0.0800 
 47 O        2.4158    17.7285    37.9154 O.3   1 KJR  -0.6800 
 48 H        1.9454    16.8947    37.8440 H     1 KJR   0.4000 
 49 C7       3.4071    20.0439    39.9191 C.ar  1 KJR  -0.1435 
 50 C8       4.1254    20.3725    41.0828 C.ar  1 KJR  -0.1500 
 51 H8       3.9665    19.8016    41.9856 H     1 KJR   0.1500 
 52 C9       5.0404    21.4260    41.0870 C.ar  1 KJR  -0.1500 
 53 H9       5.5792    21.6712    41.9903 H     1 KJR   0.1500 
 54 C10      5.2570    22.1595    39.9253 C.ar  1 KJR  -0.1500 
 55 H10      5.9686    22.9719    39.9210 H     1 KJR   0.1500 
 56 C11      4.5509    21.8407    38.7667 C.ar  1 KJR  -0.1500 
 57 H11      4.7182    22.4093    37.8639 H     1 KJR   0.1500 
 58 C12      3.6297    20.7929    38.7638 C.ar  1 KJR  -0.1500 
 59 H12      3.0851    20.5601    37.8606 H     1 KJR   0.1500 
@<TRIPOS>BOND
  1   1   2  1   
  2   1   3  1   
  3   1   4  1   
  4   1   5  1   
  5   5   6  2   
  6   5   7  am  
  7   7   8  1   
  8   7   9  1   
  9   9  10  ar  
 10   9  12  ar  
 11  10  11  1   
 12  10  18  ar  
 13  12  13  1   
 14  12  14  ar  
 15  14  15  1   
 16  14  16  ar  
 17  16  17  1   
 18  16  18  ar  
 19  18  19  1   
 20  19  20  1   
 21  19  21  2   
 22  20  34  ar  
 23  20  39  ar  
 24  21  22  1   
 25  21  33  1   
 26  22  23  ar  
 27  22  31  ar  
 28  23  24  1   
 29  23  25  ar  
 30  25  26  1   
 31  25  27  ar  
 32  27  28  1   
 33  27  29  ar  
 34  29  30  1   
 35  29  31  ar  
 36  31  32  1   
 37  33  34  1   
 38  34  35  ar  
 39  35  36  ar  
 40  36  37  1   
 41  36  38  ar  
 42  38  39  ar  
 43  39  40  1   
 44  40  41  1   
 45  40  42  1   
 46  42  43  1   
 47  42  44  1   
 48  42  49  1   
 49  44  45  1   
 50  44  46  1   
 51  44  47  1   
 52  47  48  1   
 53  49  50  ar  
 54  49  58  ar  
 55  50  51  1   
 56  50  52  ar  
 57  52  53  1   
 58  52  54  ar  
 59  54  55  1   
 60  54  56  ar  
 61  56  57  1   
 62  56  58  ar  
 63  58  59  1   
@<TRIPOS>SUBSTRUCTURE
  1 KJR  18 GROUP 4 A **** 0

# MOE 2012.10 (io_trps.svl 2012.10)
