@<TRIPOS>MOLECULE
4jr3.A
60 40 20 0 0 
SMALL
USER_CHARGES


@<TRIPOS>ATOM
  1 O      -11.8904    -0.2032    28.7816 O.3    1 HOH   0.0000 
  2 H1     -10.9304    -0.2032    28.7816 H      1 HOH   0.0000 
  3 H2     -12.1807     0.4439    29.4287 H      1 HOH   0.0000 
  4 O        4.3505    27.8190    59.8399 O.3    2 HOH   0.0000 
  5 H1       5.3105    27.8190    59.8399 H      2 HOH   0.0000 
  6 H2       4.0602    28.4661    60.4870 H      2 HOH   0.0000 
  7 O      -33.3974    -0.9919    65.3714 O.3    3 HOH   0.0000 
  8 H1     -32.4374    -0.9919    65.3714 H      3 HOH   0.0000 
  9 H2     -33.6877    -0.3449    66.0184 H      3 HOH   0.0000 
 10 O      -29.3724    -1.2847    53.7337 O.3    4 HOH   0.0000 
 11 H1     -28.4124    -1.2847    53.7337 H      4 HOH   0.0000 
 12 H2     -29.6627    -0.6376    54.3808 H      4 HOH   0.0000 
 13 O        2.0606    35.3617    23.8515 O.3    5 HOH   0.0000 
 14 H1       3.0206    35.3617    23.8515 H      5 HOH   0.0000 
 15 H2       1.7703    36.0088    24.4985 H      5 HOH   0.0000 
 16 O      -27.8131     5.0097    32.4962 O.3    6 HOH   0.0000 
 17 H1     -26.8531     5.0097    32.4962 H      6 HOH   0.0000 
 18 H2     -28.1034     5.6568    33.1432 H      6 HOH   0.0000 
 19 O        6.0874    14.4384    12.2040 O.3    7 HOH   0.0000 
 20 H1       7.0474    14.4384    12.2040 H      7 HOH   0.0000 
 21 H2       5.7971    15.0854    12.8510 H      7 HOH   0.0000 
 22 O        8.9645    18.1104    31.9818 O.3    8 HOH   0.0000 
 23 H1       9.9245    18.1104    31.9818 H      8 HOH   0.0000 
 24 H2       8.6742    18.7574    32.6288 H      8 HOH   0.0000 
 25 O      -11.3901    28.4982    44.6468 O.3    9 HOH   0.0000 
 26 H1     -10.4301    28.4982    44.6468 H      9 HOH   0.0000 
 27 H2     -11.6804    29.1452    45.2938 H      9 HOH   0.0000 
 28 O      -28.7552    13.4414    48.3476 O.3   10 HOH   0.0000 
 29 H1     -27.7952    13.4414    48.3476 H     10 HOH   0.0000 
 30 H2     -29.0455    14.0884    48.9946 H     10 HOH   0.0000 
 31 O        0.4029    22.3046    39.3230 O.3   11 HOH  -0.8340 
 32 H1       0.8167    21.9130    40.0922 H     11 HOH   0.4170 
 33 H2      -0.2451    22.9109    39.6817 H     11 HOH   0.4170 
 34 O      -12.4499    29.4616    28.7444 O.3   12 HOH   0.0000 
 35 H1     -11.4899    29.4616    28.7444 H     12 HOH   0.0000 
 36 H2     -12.7402    30.1086    29.3914 H     12 HOH   0.0000 
 37 O      -20.2179     4.4559    35.2864 O.3   13 HOH   0.0000 
 38 H1     -19.2579     4.4559    35.2864 H     13 HOH   0.0000 
 39 H2     -20.5081     5.1030    35.9335 H     13 HOH   0.0000 
 40 O        3.2536    37.6465    34.3114 O.3   14 HOH   0.0000 
 41 H1       4.2136    37.6465    34.3114 H     14 HOH   0.0000 
 42 H2       2.9634    38.2935    34.9585 H     14 HOH   0.0000 
 43 O      -31.4433    10.2895    38.3745 O.3   15 HOH   0.0000 
 44 H1     -30.4833    10.2895    38.3745 H     15 HOH   0.0000 
 45 H2     -31.7336    10.9366    39.0215 H     15 HOH   0.0000 
 46 O       -0.0124    23.8877    10.6209 O.3   16 HOH   0.0000 
 47 H1       0.9476    23.8877    10.6209 H     16 HOH   0.0000 
 48 H2      -0.3027    24.5347    11.2679 H     16 HOH   0.0000 
 49 O       -5.3840    19.5638    10.8720 O.3   17 HOH   0.0000 
 50 H1      -4.4240    19.5638    10.8720 H     17 HOH   0.0000 
 51 H2      -5.6742    20.2109    11.5191 H     17 HOH   0.0000 
 52 O      -28.0540    22.5750    39.5688 O.3   18 HOH   0.0000 
 53 H1     -27.0940    22.5750    39.5688 H     18 HOH   0.0000 
 54 H2     -28.3443    23.2221    40.2159 H     18 HOH   0.0000 
 55 O        0.8822    37.7486    36.6546 O.3   19 HOH   0.0000 
 56 H1       1.8422    37.7486    36.6546 H     19 HOH   0.0000 
 57 H2       0.5919    38.3956    37.3017 H     19 HOH   0.0000 
 58 O        3.1637    21.4726    34.7282 O.3   20 HOH  -0.8340 
 59 H1       4.0052    21.0833    34.9659 H     20 HOH   0.4170 
 60 H2       3.2290    22.3819    35.0200 H     20 HOH   0.4170 
@<TRIPOS>BOND
  1   1   2  1   
  2   1   3  1   
  3   4   5  1   
  4   4   6  1   
  5   7   8  1   
  6   7   9  1   
  7  10  11  1   
  8  10  12  1   
  9  13  14  1   
 10  13  15  1   
 11  16  17  1   
 12  16  18  1   
 13  19  20  1   
 14  19  21  1   
 15  22  23  1   
 16  22  24  1   
 17  25  26  1   
 18  25  27  1   
 19  28  29  1   
 20  28  30  1   
 21  31  32  1   
 22  31  33  1   
 23  34  35  1   
 24  34  36  1   
 25  37  38  1   
 26  37  39  1   
 27  40  41  1   
 28  40  42  1   
 29  43  44  1   
 30  43  45  1   
 31  46  47  1   
 32  46  48  1   
 33  49  50  1   
 34  49  51  1   
 35  52  53  1   
 36  52  54  1   
 37  55  56  1   
 38  55  57  1   
 39  58  59  1   
 40  58  60  1   
@<TRIPOS>SUBSTRUCTURE
  1 HOH   1 GROUP 4 A **** 0
  2 HOH   4 GROUP 4 A **** 0
  3 HOH   7 GROUP 4 A **** 0
  4 HOH  10 GROUP 4 A **** 0
  5 HOH  13 GROUP 4 A **** 0
  6 HOH  16 GROUP 4 A **** 0
  7 HOH  19 GROUP 4 A **** 0
  8 HOH  22 GROUP 4 A **** 0
  9 HOH  25 GROUP 4 A **** 0
 10 HOH  28 GROUP 4 A **** 0
 11 HOH  31 GROUP 4 A **** 0
 12 HOH  34 GROUP 4 A **** 0
 13 HOH  37 GROUP 4 A **** 0
 14 HOH  40 GROUP 4 A **** 0
 15 HOH  43 GROUP 4 A **** 0
 16 HOH  46 GROUP 4 A **** 0
 17 HOH  49 GROUP 4 A **** 0
 18 HOH  52 GROUP 4 A **** 0
 19 HOH  55 GROUP 4 A **** 0
 20 HOH  58 GROUP 4 A **** 0

# MOE 2012.10 (io_trps.svl 2012.10)
