@<TRIPOS>MOLECULE
3w2s.A
150 100 50 0 0 
SMALL
USER_CHARGES


@<TRIPOS>ATOM
  1 O       -5.9516     9.5791    34.0857 O.3    1 HOH   0.0000 
  2 H1      -4.9916     9.5791    34.0857 H      1 HOH   0.0000 
  3 H2      -6.2418    10.2262    34.7328 H      1 HOH   0.0000 
  4 O       -3.6743    15.6984    25.4946 O.3    2 HOH   0.0000 
  5 H1      -2.7143    15.6984    25.4946 H      2 HOH   0.0000 
  6 H2      -3.9646    16.3455    26.1416 H      2 HOH   0.0000 
  7 O       -8.2912     6.7967    23.2832 O.3    3 HOH   0.0000 
  8 H1      -7.3312     6.7967    23.2832 H      3 HOH   0.0000 
  9 H2      -8.5815     7.4437    23.9302 H      3 HOH   0.0000 
 10 O       -6.1496     6.0707    22.0498 O.3    4 HOH   0.0000 
 11 H1      -5.1896     6.0707    22.0498 H      4 HOH   0.0000 
 12 H2      -6.4398     6.7177    22.6968 H      4 HOH   0.0000 
 13 O      -10.3243    23.0970    20.1079 O.3    5 HOH   0.0000 
 14 H1      -9.3643    23.0970    20.1079 H      5 HOH   0.0000 
 15 H2     -10.6145    23.7441    20.7549 H      5 HOH   0.0000 
 16 O       -4.5106    16.4537    15.1597 O.3    6 HOH   0.0000 
 17 H1      -3.5506    16.4537    15.1597 H      6 HOH   0.0000 
 18 H2      -4.8009    17.1008    15.8067 H      6 HOH   0.0000 
 19 O       -0.1863    28.2616    48.3081 O.3    7 HOH   0.0000 
 20 H1       0.7737    28.2616    48.3081 H      7 HOH   0.0000 
 21 H2      -0.4766    28.9086    48.9551 H      7 HOH   0.0000 
 22 O      -12.8327     5.8186    22.5008 O.3    8 HOH   0.0000 
 23 H1     -11.8727     5.8186    22.5008 H      8 HOH   0.0000 
 24 H2     -13.1230     6.4656    23.1479 H      8 HOH   0.0000 
 25 O      -11.2368    26.4496    21.0849 O.3    9 HOH   0.0000 
 26 H1     -10.2768    26.4496    21.0849 H      9 HOH   0.0000 
 27 H2     -11.5271    27.0966    21.7319 H      9 HOH   0.0000 
 28 O      -14.5642    31.2135    28.5954 O.3   10 HOH   0.0000 
 29 H1     -13.6042    31.2135    28.5954 H     10 HOH   0.0000 
 30 H2     -14.8545    31.8605    29.2425 H     10 HOH   0.0000 
 31 O       -2.9563    11.7698    27.9771 O.3   11 HOH   0.0000 
 32 H1      -1.9963    11.7698    27.9771 H     11 HOH   0.0000 
 33 H2      -3.2466    12.4168    28.6241 H     11 HOH   0.0000 
 34 O       -8.6133     6.2552    34.4561 O.3   12 HOH   0.0000 
 35 H1      -7.6533     6.2552    34.4561 H     12 HOH   0.0000 
 36 H2      -8.9036     6.9022    35.1031 H     12 HOH   0.0000 
 37 O      -13.3476     0.5975    28.5276 O.3   13 HOH   0.0000 
 38 H1     -12.3876     0.5975    28.5276 H     13 HOH   0.0000 
 39 H2     -13.6378     1.2445    29.1747 H     13 HOH   0.0000 
 40 O      -23.5956    26.8385    33.2308 O.3   14 HOH   0.0000 
 41 H1     -22.6356    26.8385    33.2308 H     14 HOH   0.0000 
 42 H2     -23.8859    27.4856    33.8779 H     14 HOH   0.0000 
 43 O       -7.5982    33.6499    31.4853 O.3   15 HOH   0.0000 
 44 H1      -6.6382    33.6499    31.4853 H     15 HOH   0.0000 
 45 H2      -7.8885    34.2969    32.1323 H     15 HOH   0.0000 
 46 O      -10.8938    29.8467    28.0672 O.3   16 HOH   0.0000 
 47 H1      -9.9338    29.8467    28.0672 H     16 HOH   0.0000 
 48 H2     -11.1841    30.4937    28.7142 H     16 HOH   0.0000 
 49 O       -8.2234    23.5246    17.1789 O.3   17 HOH   0.0000 
 50 H1      -7.2634    23.5246    17.1789 H     17 HOH   0.0000 
 51 H2      -8.5137    24.1716    17.8259 H     17 HOH   0.0000 
 52 O      -22.5930     9.5378    42.2967 O.3   18 HOH   0.0000 
 53 H1     -21.6330     9.5378    42.2967 H     18 HOH   0.0000 
 54 H2     -22.8833    10.1848    42.9437 H     18 HOH   0.0000 
 55 O        2.9224    20.3075    26.4960 O.3   19 HOH   0.0000 
 56 H1       3.8824    20.3075    26.4960 H     19 HOH   0.0000 
 57 H2       2.6321    20.9545    27.1430 H     19 HOH   0.0000 
 58 O        2.2720    17.0151    28.7577 O.3   20 HOH  -0.8340 
 59 H1       2.0638    16.0817    28.7173 H     20 HOH   0.4170 
 60 H2       1.9800    17.2887    29.6272 H     20 HOH   0.4170 
 61 O       -8.9394    11.7577    46.7303 O.3   21 HOH   0.0000 
 62 H1      -7.9794    11.7577    46.7303 H     21 HOH   0.0000 
 63 H2      -9.2296    12.4047    47.3773 H     21 HOH   0.0000 
 64 O       -2.4676    16.2298    21.9957 O.3   22 HOH   0.0000 
 65 H1      -1.5076    16.2298    21.9957 H     22 HOH   0.0000 
 66 H2      -2.7579    16.8768    22.6427 H     22 HOH   0.0000 
 67 O      -29.2797    13.0377    38.1422 O.3   23 HOH   0.0000 
 68 H1     -28.3197    13.0377    38.1422 H     23 HOH   0.0000 
 69 H2     -29.5699    13.6847    38.7892 H     23 HOH   0.0000 
 70 O       13.0837    34.4401    34.6956 O.3   24 HOH   0.0000 
 71 H1      14.0437    34.4401    34.6956 H     24 HOH   0.0000 
 72 H2      12.7934    35.0872    35.3427 H     24 HOH   0.0000 
 73 O      -24.1664    27.4398    26.7920 O.3   25 HOH   0.0000 
 74 H1     -23.2064    27.4398    26.7920 H     25 HOH   0.0000 
 75 H2     -24.4566    28.0868    27.4391 H     25 HOH   0.0000 
 76 O       -3.0256    30.2157    35.4687 O.3   26 HOH   0.0000 
 77 H1      -2.0656    30.2157    35.4687 H     26 HOH   0.0000 
 78 H2      -3.3159    30.8627    36.1158 H     26 HOH   0.0000 
 79 O      -11.7783    30.8043    31.6501 O.3   27 HOH   0.0000 
 80 H1     -10.8183    30.8043    31.6501 H     27 HOH   0.0000 
 81 H2     -12.0686    31.4513    32.2972 H     27 HOH   0.0000 
 82 O      -13.7548    31.6773    33.8527 O.3   28 HOH   0.0000 
 83 H1     -12.7948    31.6773    33.8527 H     28 HOH   0.0000 
 84 H2     -14.0451    32.3244    34.4998 H     28 HOH   0.0000 
 85 O        0.2869    21.7824    39.4836 O.3   29 HOH  -0.8340 
 86 H1       0.9372    21.1220    39.7226 H     29 HOH   0.4170 
 87 H2       0.1431    21.6497    38.5467 H     29 HOH   0.4170 
 88 O       17.2375    21.6142    41.0392 O.3   30 HOH   0.0000 
 89 H1      18.1975    21.6142    41.0392 H     30 HOH   0.0000 
 90 H2      16.9472    22.2613    41.6862 H     30 HOH   0.0000 
 91 O       -7.2041    13.2676    44.9794 O.3   31 HOH   0.0000 
 92 H1      -6.2441    13.2676    44.9794 H     31 HOH   0.0000 
 93 H2      -7.4944    13.9146    45.6264 H     31 HOH   0.0000 
 94 O       -6.0277     5.1938    34.6221 O.3   32 HOH   0.0000 
 95 H1      -5.0677     5.1938    34.6221 H     32 HOH   0.0000 
 96 H2      -6.3180     5.8409    35.2692 H     32 HOH   0.0000 
 97 O       -4.3782     7.4114    34.6343 O.3   33 HOH   0.0000 
 98 H1      -3.4182     7.4114    34.6343 H     33 HOH   0.0000 
 99 H2      -4.6685     8.0584    35.2814 H     33 HOH   0.0000 
100 O       -3.1362    12.7583    21.2577 O.3   34 HOH   0.0000 
101 H1      -2.1762    12.7583    21.2577 H     34 HOH   0.0000 
102 H2      -3.4264    13.4053    21.9047 H     34 HOH   0.0000 
103 O       -7.0227    10.4768    13.3811 O.3   35 HOH   0.0000 
104 H1      -6.0627    10.4768    13.3811 H     35 HOH   0.0000 
105 H2      -7.3129    11.1239    14.0282 H     35 HOH   0.0000 
106 O        2.5941    23.4579    21.8800 O.3   36 HOH   0.0000 
107 H1       3.5541    23.4579    21.8800 H     36 HOH   0.0000 
108 H2       2.3038    24.1049    22.5271 H     36 HOH   0.0000 
109 O      -15.8415     8.2223    17.6067 O.3   37 HOH   0.0000 
110 H1     -14.8815     8.2223    17.6067 H     37 HOH   0.0000 
111 H2     -16.1318     8.8693    18.2537 H     37 HOH   0.0000 
112 O      -21.2091     5.9239    34.9526 O.3   38 HOH   0.0000 
113 H1     -20.2491     5.9239    34.9526 H     38 HOH   0.0000 
114 H2     -21.4994     6.5709    35.5996 H     38 HOH   0.0000 
115 O       -9.8991    21.8144    13.0106 O.3   39 HOH   0.0000 
116 H1      -8.9391    21.8144    13.0106 H     39 HOH   0.0000 
117 H2     -10.1894    22.4615    13.6577 H     39 HOH   0.0000 
118 O      -31.4626    19.5391    36.6659 O.3   40 HOH   0.0000 
119 H1     -30.5026    19.5391    36.6659 H     40 HOH   0.0000 
120 H2     -31.7529    20.1862    37.3129 H     40 HOH   0.0000 
121 O      -13.9518    16.9650    49.3320 O.3   41 HOH   0.0000 
122 H1     -12.9918    16.9650    49.3320 H     41 HOH   0.0000 
123 H2     -14.2420    17.6121    49.9790 H     41 HOH   0.0000 
124 O       -2.2250     4.1524    27.8108 O.3   42 HOH   0.0000 
125 H1      -1.2650     4.1524    27.8108 H     42 HOH   0.0000 
126 H2      -2.5153     4.7994    28.4578 H     42 HOH   0.0000 
127 O      -14.1729    10.9790    11.0926 O.3   43 HOH   0.0000 
128 H1     -13.2129    10.9790    11.0926 H     43 HOH   0.0000 
129 H2     -14.4631    11.6261    11.7397 H     43 HOH   0.0000 
130 O        6.4142    35.3727    41.7966 O.3   44 HOH   0.0000 
131 H1       7.3742    35.3727    41.7966 H     44 HOH   0.0000 
132 H2       6.1239    36.0197    42.4436 H     44 HOH   0.0000 
133 O        8.2636    38.6678    31.5600 O.3   45 HOH   0.0000 
134 H1       9.2236    38.6678    31.5600 H     45 HOH   0.0000 
135 H2       7.9733    39.3149    32.2071 H     45 HOH   0.0000 
136 O        3.3305    20.9120    22.9432 O.3   46 HOH   0.0000 
137 H1       4.2905    20.9120    22.9432 H     46 HOH   0.0000 
138 H2       3.0402    21.5591    23.5902 H     46 HOH   0.0000 
139 O      -11.5320     0.2304    35.5193 O.3   47 HOH   0.0000 
140 H1     -10.5720     0.2304    35.5193 H     47 HOH   0.0000 
141 H2     -11.8223     0.8775    36.1664 H     47 HOH   0.0000 
142 O      -14.7850     8.5944    12.7284 O.3   48 HOH   0.0000 
143 H1     -13.8250     8.5944    12.7284 H     48 HOH   0.0000 
144 H2     -15.0753     9.2414    13.3754 H     48 HOH   0.0000 
145 O      -24.0656    29.5813    32.4947 O.3   49 HOH   0.0000 
146 H1     -23.1056    29.5813    32.4947 H     49 HOH   0.0000 
147 H2     -24.3558    30.2283    33.1417 H     49 HOH   0.0000 
148 O        3.0569    16.9854    16.1602 O.3   50 HOH   0.0000 
149 H1       4.0169    16.9854    16.1602 H     50 HOH   0.0000 
150 H2       2.7666    17.6325    16.8072 H     50 HOH   0.0000 
@<TRIPOS>BOND
  1   1   2  1   
  2   1   3  1   
  3   4   5  1   
  4   4   6  1   
  5   7   8  1   
  6   7   9  1   
  7  10  11  1   
  8  10  12  1   
  9  13  14  1   
 10  13  15  1   
 11  16  17  1   
 12  16  18  1   
 13  19  20  1   
 14  19  21  1   
 15  22  23  1   
 16  22  24  1   
 17  25  26  1   
 18  25  27  1   
 19  28  29  1   
 20  28  30  1   
 21  31  32  1   
 22  31  33  1   
 23  34  35  1   
 24  34  36  1   
 25  37  38  1   
 26  37  39  1   
 27  40  41  1   
 28  40  42  1   
 29  43  44  1   
 30  43  45  1   
 31  46  47  1   
 32  46  48  1   
 33  49  50  1   
 34  49  51  1   
 35  52  53  1   
 36  52  54  1   
 37  55  56  1   
 38  55  57  1   
 39  58  59  1   
 40  58  60  1   
 41  61  62  1   
 42  61  63  1   
 43  64  65  1   
 44  64  66  1   
 45  67  68  1   
 46  67  69  1   
 47  70  71  1   
 48  70  72  1   
 49  73  74  1   
 50  73  75  1   
 51  76  77  1   
 52  76  78  1   
 53  79  80  1   
 54  79  81  1   
 55  82  83  1   
 56  82  84  1   
 57  85  86  1   
 58  85  87  1   
 59  88  89  1   
 60  88  90  1   
 61  91  92  1   
 62  91  93  1   
 63  94  95  1   
 64  94  96  1   
 65  97  98  1   
 66  97  99  1   
 67 100 101  1   
 68 100 102  1   
 69 103 104  1   
 70 103 105  1   
 71 106 107  1   
 72 106 108  1   
 73 109 110  1   
 74 109 111  1   
 75 112 113  1   
 76 112 114  1   
 77 115 116  1   
 78 115 117  1   
 79 118 119  1   
 80 118 120  1   
 81 121 122  1   
 82 121 123  1   
 83 124 125  1   
 84 124 126  1   
 85 127 128  1   
 86 127 129  1   
 87 130 131  1   
 88 130 132  1   
 89 133 134  1   
 90 133 135  1   
 91 136 137  1   
 92 136 138  1   
 93 139 140  1   
 94 139 141  1   
 95 142 143  1   
 96 142 144  1   
 97 145 146  1   
 98 145 147  1   
 99 148 149  1   
100 148 150  1   
@<TRIPOS>SUBSTRUCTURE
  1 HOH   1 GROUP 4 A **** 0
  2 HOH   4 GROUP 4 A **** 0
  3 HOH   7 GROUP 4 A **** 0
  4 HOH  10 GROUP 4 A **** 0
  5 HOH  13 GROUP 4 A **** 0
  6 HOH  16 GROUP 4 A **** 0
  7 HOH  19 GROUP 4 A **** 0
  8 HOH  22 GROUP 4 A **** 0
  9 HOH  25 GROUP 4 A **** 0
 10 HOH  28 GROUP 4 A **** 0
 11 HOH  31 GROUP 4 A **** 0
 12 HOH  34 GROUP 4 A **** 0
 13 HOH  37 GROUP 4 A **** 0
 14 HOH  40 GROUP 4 A **** 0
 15 HOH  43 GROUP 4 A **** 0
 16 HOH  46 GROUP 4 A **** 0
 17 HOH  49 GROUP 4 A **** 0
 18 HOH  52 GROUP 4 A **** 0
 19 HOH  55 GROUP 4 A **** 0
 20 HOH  58 GROUP 4 A **** 0
 21 HOH  61 GROUP 4 A **** 0
 22 HOH  64 GROUP 4 A **** 0
 23 HOH  67 GROUP 4 A **** 0
 24 HOH  70 GROUP 4 A **** 0
 25 HOH  73 GROUP 4 A **** 0
 26 HOH  76 GROUP 4 A **** 0
 27 HOH  79 GROUP 4 A **** 0
 28 HOH  82 GROUP 4 A **** 0
 29 HOH  85 GROUP 4 A **** 0
 30 HOH  88 GROUP 4 A **** 0
 31 HOH  91 GROUP 4 A **** 0
 32 HOH  94 GROUP 4 A **** 0
 33 HOH  97 GROUP 4 A **** 0
 34 HOH 100 GROUP 4 A **** 0
 35 HOH 103 GROUP 4 A **** 0
 36 HOH 106 GROUP 4 A **** 0
 37 HOH 109 GROUP 4 A **** 0
 38 HOH 112 GROUP 4 A **** 0
 39 HOH 115 GROUP 4 A **** 0
 40 HOH 118 GROUP 4 A **** 0
 41 HOH 121 GROUP 4 A **** 0
 42 HOH 124 GROUP 4 A **** 0
 43 HOH 127 GROUP 4 A **** 0
 44 HOH 130 GROUP 4 A **** 0
 45 HOH 133 GROUP 4 A **** 0
 46 HOH 136 GROUP 4 A **** 0
 47 HOH 139 GROUP 4 A **** 0
 48 HOH 142 GROUP 4 A **** 0
 49 HOH 145 GROUP 4 A **** 0
 50 HOH 148 GROUP 4 A **** 0

# MOE 2012.10 (io_trps.svl 2012.10)
