@<TRIPOS>MOLECULE
3w2s.A
10 8 2 0 0 
SMALL
USER_CHARGES


@<TRIPOS>ATOM
  1 S       -4.3476     3.9073    37.9123 S.o2  1 SO4   0.0000 
  2 O1      -3.3904     4.9725    37.5699 O.co2 1 SO4  -0.5000 
  3 O2      -3.7197     2.5790    37.7434 O.co2 1 SO4  -0.5000 
  4 O3      -4.7314     4.0902    39.3263 O.co2 1 SO4  -0.5000 
  5 O4      -5.5523     3.9645    37.0469 O.co2 1 SO4  -0.5000 
  6 S      -12.6328    13.5186    53.7880 S.o2  2 SO4   0.0000 
  7 O1     -11.3497    12.8105    54.0083 O.co2 2 SO4  -0.5000 
  8 O2     -12.4460    14.5739    52.7599 O.co2 2 SO4  -0.5000 
  9 O3     -13.6623    12.5634    53.3231 O.co2 2 SO4  -0.5000 
 10 O4     -13.0748    14.1168    55.0660 O.co2 2 SO4  -0.5000 
@<TRIPOS>BOND
  1   1   2  ar  
  2   1   3  ar  
  3   1   4  ar  
  4   1   5  ar  
  5   6   7  ar  
  6   6   8  ar  
  7   6   9  ar  
  8   6  10  ar  
@<TRIPOS>SUBSTRUCTURE
  1 SO4   1 GROUP 4 A **** 0
  2 SO4   6 GROUP 4 A **** 0

# MOE 2012.10 (io_trps.svl 2012.10)
